*HEADING
Norton creep minimal test: compression to 1% strain + holding at 800 C
Single C3D8 element, SDV up to 53, Norton MODEL_TYPE=1
*NODE
1, 0.0, 0.0, 0.0
2, 1.0, 0.0, 0.0
3, 1.0, 1.0, 0.0
4, 0.0, 1.0, 0.0
5, 0.0, 0.0, 1.0
6, 1.0, 0.0, 1.0
7, 1.0, 1.0, 1.0
8, 0.0, 1.0, 1.0
*ELEMENT, TYPE=C3D8, ELSET=EALL
1, 1, 2, 3, 4, 5, 6, 7, 8
*NSET, NSET=NALL
1,2,3,4,5,6,7,8
*NSET, NSET=NTOP
5,6,7,8
*NSET, NSET=NBOT
1,2,3,4
*SOLID SECTION, ELSET=EALL, MATERIAL=STEEL
*MATERIAL, NAME=STEEL
*DENSITY
7800.
*ELASTIC
200e9,0.3, 600
190e9,0.31, 900
*EXPANSION
1.5E-05, 600
1.7E-05, 900
*CONDUCTIVITY
25., 600
26., 900
*SPECIFIC HEAT
560., 600
660., 900
** ENABLE=1, TYPE=1, A, B, N, GA, ALPHA, BETA, RV, TIME_UNIT=1(s)
** Q_ACT=0, REF_TEMP=273, DENSITY_COUPLING=0, MIN_STRESS=100, MAX_DINC=1.0E-4, OUTPUT_MODE=1
*CREEP-SOFTENING
1,1,1.0e-25,0.,3.0,0.,0.,0.
0.,1.,0.,273.,0,100.,1.E-4,1
*DEPVAR
53
*INITIAL CONDITIONS,TYPE=TEMPERATURE
NALL, 800.
**
*STEP, INC=50
Norton creep: 800C, 1% compression + 10s hold
*STATIC
0.1, 10., 1.E-8, 10.
*TEMPERATURE
NALL, 800.
*BOUNDARY
NBOT, 1,3, 0.0
*BOUNDARY
NTOP, 1, 2, 0.0
*BOUNDARY
NTOP, 3, 3, -0.01
*NODE PRINT, NSET=NALL
U
*NODE FILE
U
*EL FILE
S, SDV
*EL PRINT, ELSET=EALL
S, SDV
*END STEP
