*HEADING
User CREEP formula minimal test: stress relaxation at 1000 C
Single C3D8 element, SDV up to 53
** Uses MODEL_TYPE=2 (historical user creep formula with fixed GA/GAMMA)
*NODE
1, 0.0, 0.0, 0.0
2, 1.0, 0.0, 0.0
3, 1.0, 1.0, 0.0
4, 0.0, 1.0, 0.0
5, 0.0, 0.0, 1.0
6, 1.0, 0.0, 1.0
7, 1.0, 1.0, 1.0
8, 0.0, 1.0, 1.0
*ELEMENT, TYPE=C3D8, ELSET=EALL
1, 1, 2, 3, 4, 5, 6, 7, 8
*NSET, NSET=NALL
1,2,3,4,5,6,7,8
*NSET, NSET=NTOP
5,6,7,8
*NSET, NSET=NBOT
1,2,3,4
*SOLID SECTION, ELSET=EALL, MATERIAL=STEEL
*MATERIAL, NAME=STEEL
*DENSITY
7800.
*ELASTIC
200e9,0.3, 600
190e9,0.31, 900
*EXPANSION
1.5E-05, 600
1.7E-05, 900
*CONDUCTIVITY
25., 600
26., 900
*SPECIFIC HEAT
560., 600
660., 900
** ENABLE=1, MODEL_TYPE=2 (USER), A, B, N, GA, ALPHA, BETA, RV, TIME_UNIT=1(s)
** Q_ACT=0, REF_TEMP=273.15, DENSITY_COUPLING=0, MIN_STRESS=5000, MAX_DINC=0.01, OUTPUT_MODE=1
*CREEP-SOFTENING
1,2,5.623e-18,1.921e-16,5.911,5.416,4.8,797.74
1.16,1,0,273.15,0,5000.,0.01,1
*DEPVAR
53
*INITIAL CONDITIONS,TYPE=TEMPERATURE
NALL, 1000.
**
*STEP, INC=100
User creep: 1000C holding for 100s (stress relaxation via softening factor)
*STATIC
0.1, 100., 1.E-6, 100.
*TEMPERATURE
NALL, 1000.
*BOUNDARY
NBOT, 1,3, 0.0
*BOUNDARY
NTOP, 1, 2, 0.0
*BOUNDARY
NTOP, 3, 3, -0.001
*NODE PRINT, NSET=NALL
U
*NODE FILE
U
*EL FILE
S, SDV
*EL PRINT, ELSET=EALL
S, SDV
*END STEP
