*Node
      1, 0.0748801902,  0.283369243
      2, 0.0763744786,  0.282000005
      3, 0.0850000009,  0.282000005
      4, 0.0850000009,  0.279500008
      5,  0.144999996,  0.279500008
      6,  0.150000006,  0.284500003
      7,  0.150000006,  0.399500012
      8,  0.144999996,  0.404500008
      9,           0.,  0.404500008
     10,           0.,   0.31400001
     11, 0.0676183924,   0.31400001
     12, 0.0725993663,  0.309435844
     13, 0.0753611028,  0.282394081
     14, 0.0806872398,  0.282000005
     15, 0.0904545486,  0.279500008
     16, 0.0959090889,  0.279500008
     17,  0.101363637,  0.279500008
     18,  0.106818184,  0.279500008
     19,  0.112272725,  0.279500008
     20,  0.117727272,  0.279500008
** ... 704 like lines cut
*Element, type=CAX3
   1,  170,  479,  481
   2,  463,  417,  621
   3,  423,  102,  670
   4,  413,  523,  582
   5,  102,  423,  495
   6,  328,  327,  462
   7,  646,  507,  696
   8,  429,  497,  716
   9,  497,  429,  505
  10,  333,  371,  458
  11,  484,  351,  570
  12,  471,  387,  593
  13,  450,  260,  528
  14,    2,   14,  380
  15,    3,    4,  656
  16,  358,  548,  594
  17,  548,  358,  704
  18,  506,  505,  633
  19,   12,   97,  373
  20,   31,   32,  459
** ... 1326 like lines cut
*Nset, nset=UPPER_NODE, generate
   1,  724,    1
*Elset, elset=UPPER_ELEMENT, generate
    1,  1346,     1
**Section,MaterType=ElastoPlasticity 
*Solid Section,elset=UPPER_ELEMENT,material=die
, 
**
*Node
    725, 0.0769728497,  0.162499994
    726, 0.0749804452,   0.16067411
    727, 0.0726988912,  0.134564742
    728, 0.0677178726,  0.129999995
    729, 0.0391998664,  0.129999995
    730,  0.029213557,  0.120523132
    731, 0.0229000002,           0.
    732,  0.144999996,           0.
    733,  0.150000006, 0.00499999989
    734,  0.150000006,  0.159999996
    735,  0.144999996,  0.165000007
    736, 0.0850000009,  0.165000007
    737, 0.0850000009,  0.162499994
    738, 0.0756215975,   0.16197449
    739, 0.0742199272,  0.151970983
    740, 0.0734594092,  0.143267855
    741, 0.0710960105,  0.131313786
    742, 0.0582118668,  0.129999995
    743, 0.0487058647,  0.129999995
    744,  0.032316234,  0.127253667
** ... 316 like lines cut
*Element, type=CAX3
1347,  737,  956,  957
1348,  908,  963,  964
1349,  957,  935,  998
1350,  895,  949, 1014
1351,  963,  908,  994
1352, 1009,  916, 1035
1353,  863,  925,  972
1354,  929,  890,  930
1355,  938,  953,  995
1356,  947,  817,  985
1357,  741,  728,  802
1358,  787,  957,  998
1359,  886,  890,  929
1360,  725,  847, 1026
1361,  925,  863,  981
1362,  916,  734,  941
1363,  945,  896,  959
1364,  949,  788, 1014
1365,  781,  734,  916
1366,  952,  796, 1003
** ... 587 like lines cut
*Nset, nset=LOWER_NODE, generate
  725,  1060,    1
*Elset, elset=LOWER_ELEMENT, generate
 1347,  1953,     1
**Section,MaterType=ElastoPlasticity
*Solid Section,elset=LOWER_ELEMENT,material=die
,
**
*Node
   1061, 0.0389399007,  0.129999995
   1062, 0.0289535914,  0.120523095
   1063, 0.0228499994, 0.00400000019
   1064,           0., 0.00400000019
   1065,           0.,   0.31400001
   1066, 0.0399999991,   0.31400001
   1067, 0.0450000018,  0.308999985
   1068, 0.0450000018,  0.135000005
   1069, 0.0399999991,  0.129999995
   1070,  0.035234265,  0.129288077
   1071, 0.0320562571,  0.127253652
   1072, 0.0298583843,  0.124186411
   1073, 0.0370531976,  0.129820406
   1074, 0.0335484333,  0.128422111
   1075, 0.0308113359,  0.125824645
   1076, 0.0292316321,  0.122397818
   1077, 0.0231043156, 0.00885512866
   1078, 0.0233586319, 0.0137102576
   1079, 0.0236129481, 0.0185653865
   1080, 0.0238672644, 0.0234205145
** ... 2063 like lines cut
*Element, type=CAX4
1954, 1534, 1759, 1762, 1761
1955, 1535, 1760, 1762, 1759
1956, 1589, 1761, 1762, 1760
1957, 1740, 1763, 1766, 1765
1958, 1748, 1764, 1766, 1763
1959, 1751, 1765, 1766, 1764
1960, 1362, 1767, 1770, 1769
1961, 1361, 1768, 1770, 1767
1962, 1587, 1769, 1770, 1768
1963, 1351, 1771, 1774, 1773
1964, 1352, 1772, 1774, 1771
1965, 1532, 1773, 1774, 1772
1966, 1623, 1775, 1778, 1777
1967, 1622, 1776, 1778, 1775
1968, 1633, 1777, 1778, 1776
1969, 1574, 1779, 1782, 1781
1970, 1575, 1780, 1782, 1779
1971, 1621, 1781, 1782, 1780
1972, 1587, 1783, 1786, 1785
1973, 1586, 1784, 1786, 1783
** ... 1917 like lines cut
*Nset, nset=ALLOY_NODE, generate
 1061,  3143,     1
*Nset, nset=ALLOY_SYMMETRY
 1064, 1065, 1135, 1136, 1137, 1138, 1139, 1140, 1141, 1142, 1143, 1144, 1145, 1146, 1147, 1148
 1149, 1150, 1151, 1152, 1153, 1154, 1155, 1156, 1157, 1158, 1159, 1160, 1161, 1162, 1163, 1164
 1165, 1166, 1167, 1168, 1169, 1170, 1171, 1172, 1173, 1174, 1175, 1176, 1177, 1178, 1179, 1180
 1181, 1182, 1183, 1184, 1185, 1186, 1187, 1188, 1189, 1190, 1191, 1192, 1193, 1194, 1195, 1196
 1197, 1198, 1199, 1200, 1201, 1202, 1203, 1204, 1205, 1206, 1207, 1208, 1209, 1210, 1211, 1212
 1213, 1214, 1215, 1216, 1217, 1218, 1219, 1220, 1221, 1222, 1223, 1224, 1225, 1226, 1227, 1228
 1229, 1230, 1231, 1232, 1233, 1234, 1235, 1236, 1237, 1238, 1239, 1240, 1241, 1242, 1243, 1244
 1245, 1246, 1247, 1248, 1249, 1250, 1251, 1252, 1253, 1254, 1255, 1256, 1257
*Elset, elset=ALLOY_ELEMENT, generate
 1954,  3890,     1
**Section,MaterType=ElastoPlasticity
*Solid Section,elset=ALLOY_ELEMENT,material=alloy
, 
**
*Elset, elset=_ALLOY_SURF_S1
 1984, 2005, 2009, 2018, 2022, 2026, 2034, 2038, 2050, 2054, 2066, 2072, 2078, 2098, 2114, 2118
 2122, 2126, 2128, 2141, 2150, 2158, 2162, 2166, 2178, 2183, 2187, 2191, 2200, 2234, 2250, 2254
 2266, 2267, 2274, 2302, 2318, 2334, 2336, 2351, 2358, 2366, 2370, 2382, 2390, 2394, 2402, 2406
 2416, 2422, 2430, 2438, 2442, 2450, 2458, 2466, 2498, 2502, 2506, 2510, 2512, 2527, 2534, 2546
 2554, 2555, 2586, 2594, 2602, 3573, 3642, 3646, 3651, 3665, 3723, 3745, 3751, 3755, 3758, 3781
 3813, 3884, 3885
*Elset, elset=_ALLOY_SURF_S4
 1985, 2006, 2010, 2015, 2019, 2023, 2031, 2035, 2047, 2051, 2063, 2073, 2075, 2095, 2111, 2115
 2119, 2123, 2129, 2142, 2147, 2155, 2159, 2163, 2175, 2184, 2188, 2192, 2201, 2231, 2247, 2251
 2263, 2268, 2271, 2299, 2315, 2331, 2337, 2352, 2355, 2363, 2367, 2379, 2387, 2391, 2399, 2403
 2417, 2419, 2427, 2435, 2439, 2447, 2455, 2463, 2495, 2499, 2503, 2507, 2513, 2528, 2531, 2543
 2551, 2556, 2583, 2591, 2599, 3574, 3639, 3643, 3652, 3666, 3724, 3746, 3752, 3755, 3756, 3782
 3814, 3885, 3886
*Elset, elset=_LOWER_SURF_S1
 1357, 1418, 1450, 1466, 1471, 1483, 1492, 1500, 1508, 1509, 1522, 1552, 1554, 1556, 1557, 1591
 1676, 1703, 1740, 1744, 1771, 1850, 1877, 1888, 1947, 1948, 1949, 1950
*Elset, elset=_LOWER_SURF_S2
 1425, 1951
*Elset, elset=_LOWER_SURF_S3
 1425, 1951
*Elset, elset=_UPPER_SURF_S1
   14,   15,   19,   24,   55,   68,   70,   80,  151,  212,  235,  272,  295,  296,  320,  426
  437,  470,  535,  540,  546,  548,  549,  554,  556,  557,  559,  561,  565,  583,  587,  594
  596,  607,  613,  648,  681,  690,  839,  955,  981, 1068, 1098, 1150, 1152, 1250, 1291, 1303
 1307, 1330, 1345
*Elset, elset=_UPPER_SURF_S2
 1346,
*Elset, elset=_UPPER_SURF_S3
 1346,
*Surface, type=ELEMENT, name=ALLOY_SURF
_ALLOY_SURF_S1, S1
_ALLOY_SURF_S4, S4
*Surface, type=ELEMENT, name=LOWER_SURF
_LOWER_SURF_S1, S1
_LOWER_SURF_S2, S2
_LOWER_SURF_S3, S3
*Surface, type=ELEMENT, name=UPPER_SURF
_UPPER_SURF_S2, S2
_UPPER_SURF_S3, S3
_UPPER_SURF_S1, S1
** 
** ⑻盄隅砱
*Amplitude, name=LOAD1
0,0,
0.04741,-0.04741,
** ⑻盄隅砱
*Amplitude, name=UNLOAD1
0,-0.04741,
2,0,
** ⑻盄隅砱
*Amplitude, name=LOAD2
0,0,
0.08241,-0.08241,
** ⑻盄隅砱
*Amplitude, name=UNLOAD2
0,-0.08241,
2,0,
** ⑻盄隅砱
*Amplitude, name=LOAD3
0,0,
0.11741,-0.11741,
** 
**  
** 
** 
 ** MATERIALS
 ** 
*Material, name=alloy
*density
8240.
*elastic
150e9,0.32,600
141e9,0.33,700
*expansion,20.
1.43E-05,500
1.58E-05,760
1.70E-05,800
1.84E-05,900
1.87E-05,1000
*conductivity
20.9,600
24.1,700
26.1,800
25.7,900
26.3,1000
*specific heat
558.0,600
609.4,700
660.3,800
649.2,900
671.4,1000
*rate-dependentplastic
1,200e9,0.3,80821.638e6,-0.00655,-0.0017,-0.127,0.186
*damage
1,1000
*dynamicrecrystallization
0.004659,0.,0.1238,49520.,0.,0,0,50.,
5.043e-9,0.,-1.42,-0.408,196000.,0.,0.8,0.693,
1.,485.e8,0.,-0.41,-0.028,-24.e4,0.
** 
*Material, name=die
*density
8570
*elastic
200e9,0.3
*conductivity
20
*specific heat
510
** 
** 
** 
** 諉揖陓洘
*Surface Interaction,name=IntProp-0
*Friction,slip tolerance=0.005
0.4,1e12
*Surface Behavior,pressure-overclosure=LINEAR
1e14
*Gap Conductance
1000
*Surface Interaction,name=IntProp-1
*Friction,slip tolerance=0.005
0.4,1e12
*Surface Behavior,pressure-overclosure=LINEAR
1e14
*Gap Conductance
1000
*contact pair,interaction=IntProp-0,type=SURFACE TO SURFACE
ALLOY_SURF,UPPER_SURF
*contact pair,interaction=IntProp-1,type=SURFACE TO SURFACE
ALLOY_SURF,LOWER_SURF
** 晚賜沭璃
*Boundary
** fixedname=fixedbc0
ALLOY_SYMMETRY, 1,1
*Boundary
** fixedname=fixedbc1
UPPER_NODE, 1,1
*Boundary
** fixedname=fixedbc2
LOWER_NODE, 1,1
*Boundary
** fixedname=fixedbc3
LOWER_NODE, 2,2
** 
** 場宎趙
*Initial Conditions, type=TEMPERATURE
UPPER_NODE, 380
*Initial Conditions, type=TEMPERATURE
LOWER_NODE, 380
*Initial Conditions, type=TEMPERATURE
ALLOY_NODE, 1120
** 
*Physical Constants,absolute zero=-273,stefan boltzmann=5.6704e-08
** 賦彆怀堤潔路
*TIME POINTS,NAME=T0,GENERATE
0,0.04741,0.001
** 賦彆怀堤潔路
*TIME POINTS,NAME=T1,GENERATE
0,2,0.5
** 賦彆怀堤潔路
*TIME POINTS,NAME=T2,GENERATE
0,0.08241,0.001
** 賦彆怀堤潔路
*TIME POINTS,NAME=T3,GENERATE
0,2,0.5
** 賦彆怀堤潔路
*TIME POINTS,NAME=T4,GENERATE
0,0.11741,0.001
**--------------------------------------------------
** Step - 1⑴賤ん扢离
*Step, inc=1000000, nlgeom=YES
*uncoupled Temperature-displacement,deltmx= 50
0.00001,0.04741,1e-15,0.0001
** 
*Boundary,amplitude=LOAD1
**MontionName=m0
UPPER_NODE,2,2,1
** 
** 
** 
*NODE FILE,TIME POINTS=T0
U,NT
*EL FILE,TIME POINTS=T0
S,E,SDV
*NODE PRINT,NSET=UPPER_NODE,TIME POINTS=T0,TOTALS=ONLY
*End Step 
**--------------------------------------------------
** Step - 2⑴賤ん扢离
*Step, inc=1000000, nlgeom=YES
*uncoupled Temperature-displacement,deltmx= 50
0.0001,2,1e-15,0.1
** 
*Boundary,amplitude=UNLOAD1
**MontionName=m1
UPPER_NODE,2,2,1
** 
** 
** 
*NODE FILE,TIME POINTS=T1
U,NT
*EL FILE,TIME POINTS=T1
S,E,SDV
*NODE PRINT,NSET=UPPER_NODE,TIME POINTS=T1,TOTALS=ONLY
*End Step 
**--------------------------------------------------
** Step - 3⑴賤ん扢离
*Step, inc=1000000, nlgeom=YES
*uncoupled Temperature-displacement,deltmx= 50
0.00001,0.08241,1e-15,0.0001
** 
*Boundary,amplitude=LOAD2
**MontionName=m2
UPPER_NODE,2,2,1
** 
** 
** 
*NODE FILE,TIME POINTS=T2
U,NT
*EL FILE,TIME POINTS=T2
S,E,SDV
*NODE PRINT,NSET=UPPER_NODE,TIME POINTS=T2,TOTALS=ONLY
*End Step 
**--------------------------------------------------
** Step - 4⑴賤ん扢离
*Step, inc=1000000, nlgeom=YES
*uncoupled Temperature-displacement,deltmx= 50
0.0001,2,1e-15,0.1
** 
*Boundary,amplitude=UNLOAD2
**MontionName=m3
UPPER_NODE,2,2,1
** 
** 
** 
*NODE FILE,TIME POINTS=T3
U,NT
*EL FILE,TIME POINTS=T3
S,E,SDV
*NODE PRINT,NSET=UPPER_NODE,TIME POINTS=T3,TOTALS=ONLY
*End Step 
**--------------------------------------------------
** Step - 5⑴賤ん扢离
*Step, inc=1000000, nlgeom=YES
*uncoupled Temperature-displacement,deltmx= 50
0.00001,0.11741,1e-15,0.0001
** 
*Boundary,amplitude=LOAD3
**MontionName=m4
UPPER_NODE,2,2,1
** 
** 
** 
*NODE FILE,TIME POINTS=T4
U,NT
*EL FILE,TIME POINTS=T4
S,E,SDV
*NODE PRINT,NSET=UPPER_NODE,TIME POINTS=T4,TOTALS=ONLY
*End Step 
