SUMMARY OF JOB INFORMATION
  STEP      INC     ATT  ITRS     TOT TIME     STEP TIME      INC TIME    INEXT
     1          1     1     2  0.100000E-04  0.100000E-04  0.100000E-04    12
     1          1     1     3  0.100000E-04  0.100000E-04  0.100000E-04    12
     1          2     1     2  0.200000E-04  0.200000E-04  0.100000E-04    12
     1          2     1     3  0.200000E-04  0.200000E-04  0.100000E-04    12
     1          3     1     2  0.350000E-04  0.350000E-04  0.150000E-04    12
     1          3     1     4  0.350000E-04  0.350000E-04  0.150000E-04    12
     1          4     1     2  0.575000E-04  0.575000E-04  0.225000E-04    12
     1          4     1     3  0.575000E-04  0.575000E-04  0.225000E-04    12
     1          5     1     2  0.912500E-04  0.912500E-04  0.337500E-04    12
     1          5     1     4  0.912500E-04  0.912500E-04  0.337500E-04    12
     1          6     1     2  0.141875E-03  0.141875E-03  0.506250E-04    12
     1          6     1     5  0.141875E-03  0.141875E-03  0.506250E-04    12
     1          7     1     2  0.217812E-03  0.217812E-03  0.759375E-04    12
     1          7     1     5  0.217812E-03  0.217812E-03  0.759375E-04    12
     1          8     1     2  0.317813E-03  0.317813E-03  0.100000E-03    12
     1          8     1U   20  0.217812E-03  0.217812E-03  0.100000E-03    12
     1          8     2     3  0.317813E-03  0.317813E-03  0.100000E-03    12
     1          8     2U   20  0.217812E-03  0.217812E-03  0.100000E-03    12
     1          8     3     3  0.267812E-03  0.267812E-03  0.500000E-04    12
     1          8     3     5  0.267812E-03  0.267812E-03  0.500000E-04    12
     1          9     1     2  0.317813E-03  0.317813E-03  0.500000E-04    12
     1          9     1     5  0.317813E-03  0.317813E-03  0.500000E-04    12
     1         10     1     2  0.392813E-03  0.392813E-03  0.750000E-04    12
     1         10     1     6  0.392813E-03  0.392813E-03  0.750000E-04    12
     1         11     1     2  0.492812E-03  0.492812E-03  0.100000E-03    12
     1         11     1     8  0.492812E-03  0.492812E-03  0.100000E-03    12
     1         12     1     2  0.592813E-03  0.592813E-03  0.100000E-03    12
     1         12     1     7  0.592813E-03  0.592813E-03  0.100000E-03    12
     1         13     1     2  0.692813E-03  0.692813E-03  0.100000E-03    12
     1         13     1     6  0.692813E-03  0.692813E-03  0.100000E-03    12
     1         14     1     2  0.792813E-03  0.792813E-03  0.100000E-03    12
     1         14     1     6  0.792813E-03  0.792813E-03  0.100000E-03    12
     1         15     1     2  0.892813E-03  0.892813E-03  0.100000E-03    12
     1         15     1     6  0.892813E-03  0.892813E-03  0.100000E-03    12
     1         16     1     2  0.992812E-03  0.992812E-03  0.100000E-03    12
     1         16     1     5  0.992812E-03  0.992812E-03  0.100000E-03    12
     1         17     1     2  0.100000E-02  0.100000E-02  0.718750E-05    13
     1         17     1     3  0.100000E-02  0.100000E-02  0.718750E-05    13
     1         18     1     2  0.110000E-02  0.110000E-02  0.100000E-03    13
     1         18     1     5  0.110000E-02  0.110000E-02  0.100000E-03    13
     1         19     1     2  0.120000E-02  0.120000E-02  0.100000E-03    13
     1         19     1     5  0.120000E-02  0.120000E-02  0.100000E-03    13
     1         20     1     2  0.130000E-02  0.130000E-02  0.100000E-03    13
     1         20     1     5  0.130000E-02  0.130000E-02  0.100000E-03    13
     1         21     1     2  0.140000E-02  0.140000E-02  0.100000E-03    13
     1         21     1     5  0.140000E-02  0.140000E-02  0.100000E-03    13
     1         22     1     2  0.150000E-02  0.150000E-02  0.100000E-03    13
     1         22     1     6  0.150000E-02  0.150000E-02  0.100000E-03    13
     1         23     1     2  0.160000E-02  0.160000E-02  0.100000E-03    13
     1         23     1     8  0.160000E-02  0.160000E-02  0.100000E-03    13
     1         24     1     2  0.170000E-02  0.170000E-02  0.100000E-03    13
     1         24     1U   16  0.160000E-02  0.160000E-02  0.100000E-03    13
     1         24     2     3  0.170000E-02  0.170000E-02  0.100000E-03    13
     1         24     2U   16  0.160000E-02  0.160000E-02  0.100000E-03    13
     1         24     3     3  0.162500E-02  0.162500E-02  0.250000E-04    13
     1         24     3     5  0.162500E-02  0.162500E-02  0.250000E-04    13
     1         25     1     2  0.165000E-02  0.165000E-02  0.250000E-04    13
     1         25     1     5  0.165000E-02  0.165000E-02  0.250000E-04    13
     1         26     1     2  0.168750E-02  0.168750E-02  0.375000E-04    13
     1         26     1     5  0.168750E-02  0.168750E-02  0.375000E-04    13
     1         27     1     2  0.174375E-02  0.174375E-02  0.562500E-04    13
     1         27     1     5  0.174375E-02  0.174375E-02  0.562500E-04    13
     1         28     1     2  0.182813E-02  0.182813E-02  0.843750E-04    13
     1         28     1     5  0.182813E-02  0.182813E-02  0.843750E-04    13
     1         29     1     2  0.192813E-02  0.192813E-02  0.100000E-03    13
     1         29     1     7  0.192813E-02  0.192813E-02  0.100000E-03    13
     1         30     1     2  0.200000E-02  0.200000E-02  0.718750E-04    14
     1         30     1     5  0.200000E-02  0.200000E-02  0.718750E-04    14
     1         31     1     2  0.210000E-02  0.210000E-02  0.100000E-03    14
     1         31     1U   16  0.200000E-02  0.200000E-02  0.100000E-03    14
     1         31     2     3  0.210000E-02  0.210000E-02  0.100000E-03    14
     1         31     2U   16  0.200000E-02  0.200000E-02  0.100000E-03    14
     1         31     3     3  0.202500E-02  0.202500E-02  0.250000E-04    14
     1         31     3     4  0.202500E-02  0.202500E-02  0.250000E-04    14
     1         32     1     2  0.205000E-02  0.205000E-02  0.250000E-04    14
     1         32     1     4  0.205000E-02  0.205000E-02  0.250000E-04    14
     1         33     1     2  0.208750E-02  0.208750E-02  0.375000E-04    14
     1         33     1     4  0.208750E-02  0.208750E-02  0.375000E-04    14
     1         34     1     2  0.214375E-02  0.214375E-02  0.562500E-04    14
     1         34     1     5  0.214375E-02  0.214375E-02  0.562500E-04    14
     1         35     1     2  0.222813E-02  0.222813E-02  0.843750E-04    14
     1         35     1     5  0.222813E-02  0.222813E-02  0.843750E-04    14
     1         36     1     2  0.232813E-02  0.232813E-02  0.100000E-03    14
     1         36     1U   12  0.222813E-02  0.222813E-02  0.100000E-03    14
     1         36     2     3  0.232813E-02  0.232813E-02  0.100000E-03    14
     1         36     2U    9  0.222813E-02  0.222813E-02  0.100000E-03    14
     1         36     3     3  0.225312E-02  0.225312E-02  0.250000E-04    14
     1         36     3     4  0.225312E-02  0.225312E-02  0.250000E-04    14
     1         37     1     2  0.227812E-02  0.227812E-02  0.250000E-04    14
     1         37     1     5  0.227812E-02  0.227812E-02  0.250000E-04    14
     1         38     1     2  0.231562E-02  0.231562E-02  0.375000E-04    14
     1         38     1     5  0.231562E-02  0.231562E-02  0.375000E-04    14
     1         39     1     2  0.237187E-02  0.237187E-02  0.562500E-04    14
     1         39     1     5  0.237187E-02  0.237187E-02  0.562500E-04    14
     1         40     1     2  0.245625E-02  0.245625E-02  0.843750E-04    14
     1         40     1U   13  0.237188E-02  0.237188E-02  0.843750E-04    14
     1         40     2     3  0.245625E-02  0.245625E-02  0.843750E-04    14
     1         40     2U   14  0.237188E-02  0.237188E-02  0.843750E-04    14
     1         40     3     3  0.239297E-02  0.239297E-02  0.210938E-04    14
     1         40     3     5  0.239297E-02  0.239297E-02  0.210938E-04    14
     1         41     1     2  0.241406E-02  0.241406E-02  0.210938E-04    14
     1         41     1     5  0.241406E-02  0.241406E-02  0.210938E-04    14
     1         42     1     2  0.244570E-02  0.244570E-02  0.316406E-04    14
     1         42     1     5  0.244570E-02  0.244570E-02  0.316406E-04    14
     1         43     1     2  0.249316E-02  0.249316E-02  0.474609E-04    14
     1         43     1     5  0.249316E-02  0.249316E-02  0.474609E-04    14
     1         44     1     2  0.256436E-02  0.256436E-02  0.711914E-04    14
     1         44     1U   16  0.249316E-02  0.249316E-02  0.711914E-04    14
     1         44     2     3  0.256436E-02  0.256436E-02  0.711914E-04    14
     1         44     2U   15  0.249316E-02  0.249316E-02  0.711914E-04    14
     1         44     3     3  0.251096E-02  0.251096E-02  0.177979E-04    14
     1         44     3     4  0.251096E-02  0.251096E-02  0.177979E-04    14
     1         45     1     2  0.252876E-02  0.252876E-02  0.177979E-04    14
     1         45     1     4  0.252876E-02  0.252876E-02  0.177979E-04    14
     1         46     1     2  0.255546E-02  0.255546E-02  0.266968E-04    14
     1         46     1     4  0.255546E-02  0.255546E-02  0.266968E-04    14
     1         47     1     2  0.259550E-02  0.259550E-02  0.400452E-04    14
     1         47     1     4  0.259550E-02  0.259550E-02  0.400452E-04    14
     1         48     1     2  0.265557E-02  0.265557E-02  0.600677E-04    14
     1         48     1U   15  0.259550E-02  0.259550E-02  0.600677E-04    14
     1         48     2     3  0.265557E-02  0.265557E-02  0.600677E-04    14
     1         48     2U   16  0.259550E-02  0.259550E-02  0.600677E-04    14
     1         48     3     3  0.261052E-02  0.261052E-02  0.150169E-04    14
     1         48     3     3  0.261052E-02  0.261052E-02  0.150169E-04    14
     1         49     1     2  0.262554E-02  0.262554E-02  0.150169E-04    14
     1         49     1     4  0.262554E-02  0.262554E-02  0.150169E-04    14
     1         50     1     2  0.264806E-02  0.264806E-02  0.225254E-04    14
     1         50     1     4  0.264806E-02  0.264806E-02  0.225254E-04    14
     1         51     1     2  0.268185E-02  0.268185E-02  0.337881E-04    14
     1         51     1     4  0.268185E-02  0.268185E-02  0.337881E-04    14
     1         52     1     2  0.273253E-02  0.273253E-02  0.506822E-04    14
     1         52     1     7  0.273253E-02  0.273253E-02  0.506822E-04    14
     1         53     1     2  0.280855E-02  0.280855E-02  0.760232E-04    14
     1         53     1U   10  0.273253E-02  0.273253E-02  0.760232E-04    14
     1         53     2     3  0.280855E-02  0.280855E-02  0.760232E-04    14
     1         53     2U   11  0.273253E-02  0.273253E-02  0.760232E-04    14
     1         53     3     3  0.275154E-02  0.275154E-02  0.190058E-04    14
     1         53     3     4  0.275154E-02  0.275154E-02  0.190058E-04    14
     1         54     1     2  0.277054E-02  0.277054E-02  0.190058E-04    14
     1         54     1     4  0.277054E-02  0.277054E-02  0.190058E-04    14
     1         55     1     2  0.279905E-02  0.279905E-02  0.285087E-04    14
     1         55     1     4  0.279905E-02  0.279905E-02  0.285087E-04    14
     1         56     1     2  0.284181E-02  0.284181E-02  0.427631E-04    14
     1         56     1     6  0.284181E-02  0.284181E-02  0.427631E-04    14
     1         57     1     2  0.290596E-02  0.290596E-02  0.641446E-04    14
     1         57     1U   16  0.284181E-02  0.284181E-02  0.641446E-04    14
     1         57     2     3  0.290596E-02  0.290596E-02  0.641446E-04    14
     1         57     2U   12  0.284181E-02  0.284181E-02  0.641446E-04    14
     1         57     3     3  0.285785E-02  0.285785E-02  0.160362E-04    14
     1         57     3     4  0.285785E-02  0.285785E-02  0.160362E-04    14
     1         58     1     2  0.287389E-02  0.287389E-02  0.160362E-04    14
     1         58     1     4  0.287389E-02  0.287389E-02  0.160362E-04    14
     1         59     1     2  0.289794E-02  0.289794E-02  0.240542E-04    14
     1         59     1     4  0.289794E-02  0.289794E-02  0.240542E-04    14
     1         60     1     2  0.293402E-02  0.293402E-02  0.360813E-04    14
     1         60     1     6  0.293402E-02  0.293402E-02  0.360813E-04    14
     1         61     1     2  0.298814E-02  0.298814E-02  0.541220E-04    14
     1         61     1U   15  0.293402E-02  0.293402E-02  0.541220E-04    14
     1         61     2     3  0.298814E-02  0.298814E-02  0.541220E-04    14
     1         61     2U   15  0.293402E-02  0.293402E-02  0.541220E-04    14
     1         61     3     3  0.294755E-02  0.294755E-02  0.135305E-04    14
     1         61     3     4  0.294755E-02  0.294755E-02  0.135305E-04    14
     1         62     1     2  0.296108E-02  0.296108E-02  0.135305E-04    14
     1         62     1     4  0.296108E-02  0.296108E-02  0.135305E-04    14
     1         63     1     2  0.298138E-02  0.298138E-02  0.202958E-04    14
     1         63     1     4  0.298138E-02  0.298138E-02  0.202958E-04    14
     1         64     1     2  0.300000E-02  0.300000E-02  0.186207E-04    15
     1         64     1     4  0.300000E-02  0.300000E-02  0.186207E-04    15
     1         65     1     2  0.304567E-02  0.304567E-02  0.456655E-04    15
     1         65     1U   20  0.300000E-02  0.300000E-02  0.456655E-04    15
     1         65     2     3  0.304567E-02  0.304567E-02  0.456655E-04    15
     1         65     2U   20  0.300000E-02  0.300000E-02  0.456655E-04    15
     1         65     3     3  0.302283E-02  0.302283E-02  0.228327E-04    15
     1         65     3     5  0.302283E-02  0.302283E-02  0.228327E-04    15
     1         66     1     2  0.304567E-02  0.304567E-02  0.228327E-04    15
     1         66     1     4  0.304567E-02  0.304567E-02  0.228327E-04    15
     1         67     1     2  0.307991E-02  0.307991E-02  0.342491E-04    15
     1         67     1     7  0.307991E-02  0.307991E-02  0.342491E-04    15
     1         68     1     2  0.313129E-02  0.313129E-02  0.513736E-04    15
     1         68     1U   16  0.307991E-02  0.307991E-02  0.513736E-04    15
     1         68     2     3  0.313129E-02  0.313129E-02  0.513736E-04    15
     1         68     2U   16  0.307991E-02  0.307991E-02  0.513736E-04    15
     1         68     3     3  0.309276E-02  0.309276E-02  0.128434E-04    15
     1         68     3     4  0.309276E-02  0.309276E-02  0.128434E-04    15
     1         69     1     2  0.310560E-02  0.310560E-02  0.128434E-04    15
     1         69     1     4  0.310560E-02  0.310560E-02  0.128434E-04    15
     1         70     1     2  0.312487E-02  0.312487E-02  0.192651E-04    15
     1         70     1     5  0.312487E-02  0.312487E-02  0.192651E-04    15
     1         71     1     2  0.315376E-02  0.315376E-02  0.288977E-04    15
     1         71     1     6  0.315376E-02  0.315376E-02  0.288977E-04    15
     1         72     1     2  0.319711E-02  0.319711E-02  0.433465E-04    15
     1         72     1     6  0.319711E-02  0.319711E-02  0.433465E-04    15
     1         73     1     2  0.326213E-02  0.326213E-02  0.650198E-04    15
     1         73     1     5  0.326213E-02  0.326213E-02  0.650198E-04    15
     1         74     1     2  0.335966E-02  0.335966E-02  0.975296E-04    15
     1         74     1     5  0.335966E-02  0.335966E-02  0.975296E-04    15
     1         75     1     2  0.345966E-02  0.345966E-02  0.100000E-03    15
     1         75     1     5  0.345966E-02  0.345966E-02  0.100000E-03    15
     1         76     1     2  0.355966E-02  0.355966E-02  0.100000E-03    15
     1         76     1     5  0.355966E-02  0.355966E-02  0.100000E-03    15
     1         77     1     2  0.365966E-02  0.365966E-02  0.100000E-03    15
     1         77     1     5  0.365966E-02  0.365966E-02  0.100000E-03    15
     1         78     1     2  0.375966E-02  0.375966E-02  0.100000E-03    15
     1         78     1     5  0.375966E-02  0.375966E-02  0.100000E-03    15
     1         79     1     2  0.385966E-02  0.385966E-02  0.100000E-03    15
     1         79     1     5  0.385966E-02  0.385966E-02  0.100000E-03    15
     1         80     1     2  0.395966E-02  0.395966E-02  0.100000E-03    15
     1         80     1     5  0.395966E-02  0.395966E-02  0.100000E-03    15
     1         81     1     2  0.400000E-02  0.400000E-02  0.403400E-04    16
     1         81     1     4  0.400000E-02  0.400000E-02  0.403400E-04    16
     1         82     1     2  0.410000E-02  0.410000E-02  0.100000E-03    16
     1         82     1     4  0.410000E-02  0.410000E-02  0.100000E-03    16
     1         83     1     2  0.420000E-02  0.420000E-02  0.100000E-03    16
     1         83     1     4  0.420000E-02  0.420000E-02  0.100000E-03    16
     1         84     1     2  0.430000E-02  0.430000E-02  0.100000E-03    16
     1         84     1     4  0.430000E-02  0.430000E-02  0.100000E-03    16
     1         85     1     2  0.440000E-02  0.440000E-02  0.100000E-03    16
     1         85     1     4  0.440000E-02  0.440000E-02  0.100000E-03    16
     1         86     1     2  0.450000E-02  0.450000E-02  0.100000E-03    16
     1         86     1     5  0.450000E-02  0.450000E-02  0.100000E-03    16
     1         87     1     2  0.460000E-02  0.460000E-02  0.100000E-03    16
     1         87     1     5  0.460000E-02  0.460000E-02  0.100000E-03    16
     1         88     1     2  0.470000E-02  0.470000E-02  0.100000E-03    16
     1         88     1     5  0.470000E-02  0.470000E-02  0.100000E-03    16
     1         89     1     2  0.480000E-02  0.480000E-02  0.100000E-03    16
     1         89     1     5  0.480000E-02  0.480000E-02  0.100000E-03    16
     1         90     1     2  0.490000E-02  0.490000E-02  0.100000E-03    16
     1         90     1     5  0.490000E-02  0.490000E-02  0.100000E-03    16
     1         91     1     2  0.500000E-02  0.500000E-02  0.100000E-03    17
     1         91     1     5  0.500000E-02  0.500000E-02  0.100000E-03    17
     1         92     1     2  0.510000E-02  0.510000E-02  0.100000E-03    17
     1         92     1     5  0.510000E-02  0.510000E-02  0.100000E-03    17
     1         93     1     2  0.520000E-02  0.520000E-02  0.100000E-03    17
     1         93     1     5  0.520000E-02  0.520000E-02  0.100000E-03    17
     1         94     1     3  0.530000E-02  0.530000E-02  0.100000E-03    17
     1         94     1     5  0.530000E-02  0.530000E-02  0.100000E-03    17
     1         95     1     2  0.540000E-02  0.540000E-02  0.100000E-03    17
     1         95     1     5  0.540000E-02  0.540000E-02  0.100000E-03    17
     1         96     1     2  0.550000E-02  0.550000E-02  0.100000E-03    17
     1         96     1     5  0.550000E-02  0.550000E-02  0.100000E-03    17
     1         97     1     2  0.560000E-02  0.560000E-02  0.100000E-03    17
     1         97     1     5  0.560000E-02  0.560000E-02  0.100000E-03    17
     1         98     1     2  0.570000E-02  0.570000E-02  0.100000E-03    17
     1         98     1     5  0.570000E-02  0.570000E-02  0.100000E-03    17
     1         99     1     2  0.580000E-02  0.580000E-02  0.100000E-03    17
     1         99     1     6  0.580000E-02  0.580000E-02  0.100000E-03    17
     1        100     1     2  0.590000E-02  0.590000E-02  0.100000E-03    17
     1        100     1     5  0.590000E-02  0.590000E-02  0.100000E-03    17
     1        101     1     2  0.600000E-02  0.600000E-02  0.100000E-03    18
     1        101     1     5  0.600000E-02  0.600000E-02  0.100000E-03    18
     1        102     1     2  0.610000E-02  0.610000E-02  0.100000E-03    18
     1        102     1     5  0.610000E-02  0.610000E-02  0.100000E-03    18
     1        103     1     2  0.620000E-02  0.620000E-02  0.100000E-03    18
     1        103     1     5  0.620000E-02  0.620000E-02  0.100000E-03    18
     1        104     1     2  0.630000E-02  0.630000E-02  0.100000E-03    18
     1        104     1     5  0.630000E-02  0.630000E-02  0.100000E-03    18
     1        105     1     2  0.640000E-02  0.640000E-02  0.100000E-03    18
     1        105     1     5  0.640000E-02  0.640000E-02  0.100000E-03    18
     1        106     1     2  0.650000E-02  0.650000E-02  0.100000E-03    18
     1        106     1     5  0.650000E-02  0.650000E-02  0.100000E-03    18
     1        107     1     2  0.660000E-02  0.660000E-02  0.100000E-03    18
     1        107     1     5  0.660000E-02  0.660000E-02  0.100000E-03    18
     1        108     1     2  0.670000E-02  0.670000E-02  0.100000E-03    18
     1        108     1     5  0.670000E-02  0.670000E-02  0.100000E-03    18
     1        109     1     2  0.680000E-02  0.680000E-02  0.100000E-03    18
     1        109     1     5  0.680000E-02  0.680000E-02  0.100000E-03    18
     1        110     1     2  0.690000E-02  0.690000E-02  0.100000E-03    18
     1        110     1U   16  0.680000E-02  0.680000E-02  0.100000E-03    18
     1        110     2     3  0.690000E-02  0.690000E-02  0.100000E-03    18
     1        110     2     5  0.690000E-02  0.690000E-02  0.100000E-03    18
     1        111     1     2  0.700000E-02  0.700000E-02  0.100000E-03    19
     1        111     1     5  0.700000E-02  0.700000E-02  0.100000E-03    19
     1        112     1     2  0.710000E-02  0.710000E-02  0.100000E-03    19
     1        112     1     5  0.710000E-02  0.710000E-02  0.100000E-03    19
     1        113     1     2  0.720000E-02  0.720000E-02  0.100000E-03    19
     1        113     1     6  0.720000E-02  0.720000E-02  0.100000E-03    19
     1        114     1     2  0.730000E-02  0.730000E-02  0.100000E-03    19
     1        114     1     6  0.730000E-02  0.730000E-02  0.100000E-03    19
     1        115     1     2  0.740000E-02  0.740000E-02  0.100000E-03    19
     1        115     1     6  0.740000E-02  0.740000E-02  0.100000E-03    19
     1        116     1     2  0.750000E-02  0.750000E-02  0.100000E-03    19
     1        116     1     6  0.750000E-02  0.750000E-02  0.100000E-03    19
     1        117     1     2  0.760000E-02  0.760000E-02  0.100000E-03    19
     1        117     1     5  0.760000E-02  0.760000E-02  0.100000E-03    19
     1        118     1     2  0.770000E-02  0.770000E-02  0.100000E-03    19
     1        118     1     5  0.770000E-02  0.770000E-02  0.100000E-03    19
     1        119     1     2  0.780000E-02  0.780000E-02  0.100000E-03    19
     1        119     1     5  0.780000E-02  0.780000E-02  0.100000E-03    19
     1        120     1     2  0.790000E-02  0.790000E-02  0.100000E-03    19
     1        120     1     6  0.790000E-02  0.790000E-02  0.100000E-03    19
     1        121     1     2  0.800000E-02  0.800000E-02  0.100000E-03    20
     1        121     1     6  0.800000E-02  0.800000E-02  0.100000E-03    20
     1        122     1     2  0.810000E-02  0.810000E-02  0.100000E-03    20
     1        122     1     6  0.810000E-02  0.810000E-02  0.100000E-03    20
     1        123     1     2  0.820000E-02  0.820000E-02  0.100000E-03    20
     1        123     1     6  0.820000E-02  0.820000E-02  0.100000E-03    20
     1        124     1     2  0.830000E-02  0.830000E-02  0.100000E-03    20
     1        124     1     6  0.830000E-02  0.830000E-02  0.100000E-03    20
     1        125     1     2  0.840000E-02  0.840000E-02  0.100000E-03    20
     1        125     1     6  0.840000E-02  0.840000E-02  0.100000E-03    20
     1        126     1     2  0.850000E-02  0.850000E-02  0.100000E-03    20
     1        126     1     6  0.850000E-02  0.850000E-02  0.100000E-03    20
     1        127     1     2  0.860000E-02  0.860000E-02  0.100000E-03    20
     1        127     1     6  0.860000E-02  0.860000E-02  0.100000E-03    20
     1        128     1     2  0.870000E-02  0.870000E-02  0.100000E-03    20
     1        128     1     6  0.870000E-02  0.870000E-02  0.100000E-03    20
     1        129     1     2  0.880000E-02  0.880000E-02  0.100000E-03    20
     1        129     1U   11  0.870000E-02  0.870000E-02  0.100000E-03    20
     1        129     2     3  0.880000E-02  0.880000E-02  0.100000E-03    20
     1        129     2     6  0.880000E-02  0.880000E-02  0.100000E-03    20
     1        130     1     2  0.890000E-02  0.890000E-02  0.100000E-03    20
     1        130     1     5  0.890000E-02  0.890000E-02  0.100000E-03    20
     1        131     1     2  0.900000E-02  0.900000E-02  0.100000E-03    21
     1        131     1     5  0.900000E-02  0.900000E-02  0.100000E-03    21
     1        132     1     2  0.910000E-02  0.910000E-02  0.100000E-03    21
     1        132     1     5  0.910000E-02  0.910000E-02  0.100000E-03    21
     1        133     1     2  0.920000E-02  0.920000E-02  0.100000E-03    21
     1        133     1     6  0.920000E-02  0.920000E-02  0.100000E-03    21
     1        134     1     2  0.930000E-02  0.930000E-02  0.100000E-03    21
     1        134     1     6  0.930000E-02  0.930000E-02  0.100000E-03    21
     1        135     1     2  0.940000E-02  0.940000E-02  0.100000E-03    21
     1        135     1     5  0.940000E-02  0.940000E-02  0.100000E-03    21
     1        136     1     2  0.950000E-02  0.950000E-02  0.100000E-03    21
     1        136     1     5  0.950000E-02  0.950000E-02  0.100000E-03    21
     1        137     1     2  0.960000E-02  0.960000E-02  0.100000E-03    21
     1        137     1     8  0.960000E-02  0.960000E-02  0.100000E-03    21
     1        138     1     2  0.970000E-02  0.970000E-02  0.100000E-03    21
     1        138     1     7  0.970000E-02  0.970000E-02  0.100000E-03    21
     1        139     1     2  0.980000E-02  0.980000E-02  0.100000E-03    21
     1        139     1     7  0.980000E-02  0.980000E-02  0.100000E-03    21
     1        140     1     2  0.990000E-02  0.990000E-02  0.100000E-03    21
     1        140     1     6  0.990000E-02  0.990000E-02  0.100000E-03    21
     1        141     1     2  0.100000E-01  0.100000E-01  0.100000E-03    22
     1        141     1     6  0.100000E-01  0.100000E-01  0.100000E-03    22
     1        142     1     2  0.101000E-01  0.101000E-01  0.100000E-03    22
     1        142     1     6  0.101000E-01  0.101000E-01  0.100000E-03    22
     1        143     1     2  0.102000E-01  0.102000E-01  0.100000E-03    22
     1        143     1     5  0.102000E-01  0.102000E-01  0.100000E-03    22
     1        144     1     2  0.103000E-01  0.103000E-01  0.100000E-03    22
     1        144     1     7  0.103000E-01  0.103000E-01  0.100000E-03    22
     1        145     1     2  0.104000E-01  0.104000E-01  0.100000E-03    22
     1        145     1     6  0.104000E-01  0.104000E-01  0.100000E-03    22
     1        146     1     2  0.105000E-01  0.105000E-01  0.100000E-03    22
     1        146     1     6  0.105000E-01  0.105000E-01  0.100000E-03    22
     1        147     1     2  0.106000E-01  0.106000E-01  0.100000E-03    22
     1        147     1     6  0.106000E-01  0.106000E-01  0.100000E-03    22
     1        148     1     2  0.107000E-01  0.107000E-01  0.100000E-03    22
     1        148     1     6  0.107000E-01  0.107000E-01  0.100000E-03    22
     1        149     1     2  0.108000E-01  0.108000E-01  0.100000E-03    22
     1        149     1     7  0.108000E-01  0.108000E-01  0.100000E-03    22
     1        150     1     2  0.109000E-01  0.109000E-01  0.100000E-03    22
     1        150     1U   20  0.108000E-01  0.108000E-01  0.100000E-03    22
     1        150     2     3  0.109000E-01  0.109000E-01  0.100000E-03    22
     1        150     2U   20  0.108000E-01  0.108000E-01  0.100000E-03    22
     1        150     3     3  0.108500E-01  0.108500E-01  0.500000E-04    22
     1        150     3     5  0.108500E-01  0.108500E-01  0.500000E-04    22
     1        151     1     2  0.109000E-01  0.109000E-01  0.500000E-04    22
     1        151     1     5  0.109000E-01  0.109000E-01  0.500000E-04    22
     1        152     1     2  0.109750E-01  0.109750E-01  0.750000E-04    22
     1        152     1     5  0.109750E-01  0.109750E-01  0.750000E-04    22
     1        153     1     2  0.110000E-01  0.110000E-01  0.250000E-04    23
     1        153     1     4  0.110000E-01  0.110000E-01  0.250000E-04    23
     1        154     1     2  0.111000E-01  0.111000E-01  0.100000E-03    23
     1        154     1     8  0.111000E-01  0.111000E-01  0.100000E-03    23
     1        155     1     2  0.112000E-01  0.112000E-01  0.100000E-03    23
     1        155     1U   13  0.111000E-01  0.111000E-01  0.100000E-03    23
     1        155     2     3  0.112000E-01  0.112000E-01  0.100000E-03    23
     1        155     2U   12  0.111000E-01  0.111000E-01  0.100000E-03    23
     1        155     3     3  0.111250E-01  0.111250E-01  0.250000E-04    23
     1        155     3     4  0.111250E-01  0.111250E-01  0.250000E-04    23
     1        156     1     2  0.111500E-01  0.111500E-01  0.250000E-04    23
     1        156     1     4  0.111500E-01  0.111500E-01  0.250000E-04    23
     1        157     1     2  0.111875E-01  0.111875E-01  0.375000E-04    23
     1        157     1     5  0.111875E-01  0.111875E-01  0.375000E-04    23
     1        158     1     2  0.112437E-01  0.112437E-01  0.562500E-04    23
     1        158     1     5  0.112437E-01  0.112437E-01  0.562500E-04    23
     1        159     1     2  0.113281E-01  0.113281E-01  0.843750E-04    23
     1        159     1     6  0.113281E-01  0.113281E-01  0.843750E-04    23
     1        160     1     2  0.114281E-01  0.114281E-01  0.100000E-03    23
     1        160     1U   11  0.113281E-01  0.113281E-01  0.100000E-03    23
     1        160     2     3  0.114281E-01  0.114281E-01  0.100000E-03    23
     1        160     2U   10  0.113281E-01  0.113281E-01  0.100000E-03    23
     1        160     3     3  0.113531E-01  0.113531E-01  0.250000E-04    23
     1        160     3     4  0.113531E-01  0.113531E-01  0.250000E-04    23
     1        161     1     2  0.113781E-01  0.113781E-01  0.250000E-04    23
     1        161     1     4  0.113781E-01  0.113781E-01  0.250000E-04    23
     1        162     1     2  0.114156E-01  0.114156E-01  0.375000E-04    23
     1        162     1     5  0.114156E-01  0.114156E-01  0.375000E-04    23
     1        163     1     2  0.114719E-01  0.114719E-01  0.562500E-04    23
     1        163     1     5  0.114719E-01  0.114719E-01  0.562500E-04    23
     1        164     1     2  0.115563E-01  0.115563E-01  0.843750E-04    23
     1        164     1U   16  0.114719E-01  0.114719E-01  0.843750E-04    23
     1        164     2     3  0.115563E-01  0.115563E-01  0.843750E-04    23
     1        164     2U   16  0.114719E-01  0.114719E-01  0.843750E-04    23
     1        164     3     3  0.114930E-01  0.114930E-01  0.210938E-04    23
     1        164     3     4  0.114930E-01  0.114930E-01  0.210938E-04    23
     1        165     1     2  0.115141E-01  0.115141E-01  0.210938E-04    23
     1        165     1     4  0.115141E-01  0.115141E-01  0.210938E-04    23
     1        166     1     2  0.115457E-01  0.115457E-01  0.316406E-04    23
     1        166     1     5  0.115457E-01  0.115457E-01  0.316406E-04    23
     1        167     1     2  0.115932E-01  0.115932E-01  0.474609E-04    23
     1        167     1     5  0.115932E-01  0.115932E-01  0.474609E-04    23
     1        168     1     2  0.116644E-01  0.116644E-01  0.711914E-04    23
     1        168     1     6  0.116644E-01  0.116644E-01  0.711914E-04    23
     1        169     1     2  0.117644E-01  0.117644E-01  0.100000E-03    23
     1        169     1U   16  0.116644E-01  0.116644E-01  0.100000E-03    23
     1        169     2     3  0.117644E-01  0.117644E-01  0.100000E-03    23
     1        169     2U   16  0.116644E-01  0.116644E-01  0.100000E-03    23
     1        169     3     3  0.116894E-01  0.116894E-01  0.250000E-04    23
     1        169     3     4  0.116894E-01  0.116894E-01  0.250000E-04    23
     1        170     1     2  0.117144E-01  0.117144E-01  0.250000E-04    23
     1        170     1     4  0.117144E-01  0.117144E-01  0.250000E-04    23
     1        171     1     2  0.117519E-01  0.117519E-01  0.375000E-04    23
     1        171     1     5  0.117519E-01  0.117519E-01  0.375000E-04    23
     1        172     1     2  0.118081E-01  0.118081E-01  0.562500E-04    23
     1        172     1     5  0.118081E-01  0.118081E-01  0.562500E-04    23
     1        173     1     2  0.118925E-01  0.118925E-01  0.843750E-04    23
     1        173     1U   16  0.118081E-01  0.118081E-01  0.843750E-04    23
     1        173     2     3  0.118925E-01  0.118925E-01  0.843750E-04    23
     1        173     2U   15  0.118081E-01  0.118081E-01  0.843750E-04    23
     1        173     3     3  0.118292E-01  0.118292E-01  0.210938E-04    23
     1        173     3     4  0.118292E-01  0.118292E-01  0.210938E-04    23
     1        174     1     2  0.118503E-01  0.118503E-01  0.210938E-04    23
     1        174     1     4  0.118503E-01  0.118503E-01  0.210938E-04    23
     1        175     1     2  0.118819E-01  0.118819E-01  0.316406E-04    23
     1        175     1     5  0.118819E-01  0.118819E-01  0.316406E-04    23
     1        176     1     2  0.119294E-01  0.119294E-01  0.474609E-04    23
     1        176     1     5  0.119294E-01  0.119294E-01  0.474609E-04    23
     1        177     1     2  0.120000E-01  0.120000E-01  0.706055E-04    24
     1        177     1U   16  0.119294E-01  0.119294E-01  0.706055E-04    24
     1        177     2     3  0.120000E-01  0.120000E-01  0.706055E-04    24
     1        177     2U   16  0.119294E-01  0.119294E-01  0.706055E-04    24
     1        177     3     3  0.119470E-01  0.119470E-01  0.176514E-04    23
     1        177     3     4  0.119470E-01  0.119470E-01  0.176514E-04    23
     1        178     1     2  0.119647E-01  0.119647E-01  0.176514E-04    23
     1        178     1     4  0.119647E-01  0.119647E-01  0.176514E-04    23
     1        179     1     2  0.119912E-01  0.119912E-01  0.264771E-04    23
     1        179     1     4  0.119912E-01  0.119912E-01  0.264771E-04    23
     1        180     1     2  0.120000E-01  0.120000E-01  0.882568E-05    24
     1        180     1     3  0.120000E-01  0.120000E-01  0.882568E-05    24
     1        181     1     2  0.120596E-01  0.120596E-01  0.595734E-04    24
     1        181     1U   16  0.120000E-01  0.120000E-01  0.595734E-04    24
     1        181     2     3  0.120596E-01  0.120596E-01  0.595734E-04    24
     1        181     2U   16  0.120000E-01  0.120000E-01  0.595734E-04    24
     1        181     3     3  0.120149E-01  0.120149E-01  0.148933E-04    24
     1        181     3     4  0.120149E-01  0.120149E-01  0.148933E-04    24
     1        182     1     2  0.120298E-01  0.120298E-01  0.148933E-04    24
     1        182     1     4  0.120298E-01  0.120298E-01  0.148933E-04    24
     1        183     1     2  0.120521E-01  0.120521E-01  0.223400E-04    24
     1        183     1     4  0.120521E-01  0.120521E-01  0.223400E-04    24
     1        184     1     2  0.120856E-01  0.120856E-01  0.335100E-04    24
     1        184     1     5  0.120856E-01  0.120856E-01  0.335100E-04    24
     1        185     1     2  0.121359E-01  0.121359E-01  0.502650E-04    24
     1        185     1U   16  0.120856E-01  0.120856E-01  0.502650E-04    24
     1        185     2     3  0.121359E-01  0.121359E-01  0.502650E-04    24
     1        185     2U   16  0.120856E-01  0.120856E-01  0.502650E-04    24
     1        185     3     3  0.120982E-01  0.120982E-01  0.125663E-04    24
     1        185     3     4  0.120982E-01  0.120982E-01  0.125663E-04    24
     1        186     1     2  0.121108E-01  0.121108E-01  0.125663E-04    24
     1        186     1     4  0.121108E-01  0.121108E-01  0.125663E-04    24
     1        187     1     2  0.121296E-01  0.121296E-01  0.188494E-04    24
     1        187     1     4  0.121296E-01  0.121296E-01  0.188494E-04    24
     1        188     1     2  0.121579E-01  0.121579E-01  0.282741E-04    24
     1        188     1     4  0.121579E-01  0.121579E-01  0.282741E-04    24
     1        189     1     2  0.122003E-01  0.122003E-01  0.424111E-04    24
     1        189     1     6  0.122003E-01  0.122003E-01  0.424111E-04    24
     1        190     1     2  0.122639E-01  0.122639E-01  0.636167E-04    24
     1        190     1U   15  0.122003E-01  0.122003E-01  0.636167E-04    24
     1        190     2     3  0.122639E-01  0.122639E-01  0.636167E-04    24
     1        190     2U   16  0.122003E-01  0.122003E-01  0.636167E-04    24
     1        190     3     3  0.122162E-01  0.122162E-01  0.159042E-04    24
     1        190     3     4  0.122162E-01  0.122162E-01  0.159042E-04    24
     1        191     1     2  0.122321E-01  0.122321E-01  0.159042E-04    24
     1        191     1     4  0.122321E-01  0.122321E-01  0.159042E-04    24
     1        192     1     2  0.122560E-01  0.122560E-01  0.238563E-04    24
     1        192     1     4  0.122560E-01  0.122560E-01  0.238563E-04    24
     1        193     1     2  0.122918E-01  0.122918E-01  0.357844E-04    24
     1        193     1     5  0.122918E-01  0.122918E-01  0.357844E-04    24
     1        194     1     2  0.123454E-01  0.123454E-01  0.536766E-04    24
     1        194     1U   12  0.122918E-01  0.122918E-01  0.536766E-04    24
     1        194     2     3  0.123454E-01  0.123454E-01  0.536766E-04    24
     1        194     2U   12  0.122918E-01  0.122918E-01  0.536766E-04    24
     1        194     3     3  0.123052E-01  0.123052E-01  0.134191E-04    24
     1        194     3     4  0.123052E-01  0.123052E-01  0.134191E-04    24
     1        195     1     2  0.123186E-01  0.123186E-01  0.134191E-04    24
     1        195     1     5  0.123186E-01  0.123186E-01  0.134191E-04    24
     1        196     1     2  0.123387E-01  0.123387E-01  0.201287E-04    24
     1        196     1     5  0.123387E-01  0.123387E-01  0.201287E-04    24
     1        197     1     2  0.123689E-01  0.123689E-01  0.301931E-04    24
     1        197     1     5  0.123689E-01  0.123689E-01  0.301931E-04    24
     1        198     1     2  0.124142E-01  0.124142E-01  0.452896E-04    24
     1        198     1U   10  0.123689E-01  0.123689E-01  0.452896E-04    24
     1        198     2     3  0.124142E-01  0.124142E-01  0.452896E-04    24
     1        198     2U   11  0.123689E-01  0.123689E-01  0.452896E-04    24
     1        198     3     3  0.123802E-01  0.123802E-01  0.113224E-04    24
     1        198     3     4  0.123802E-01  0.123802E-01  0.113224E-04    24
     1        199     1     2  0.123916E-01  0.123916E-01  0.113224E-04    24
     1        199     1     4  0.123916E-01  0.123916E-01  0.113224E-04    24
     1        200     1     2  0.124085E-01  0.124085E-01  0.169836E-04    24
     1        200     1     4  0.124085E-01  0.124085E-01  0.169836E-04    24
     1        201     1     2  0.124340E-01  0.124340E-01  0.254754E-04    24
     1        201     1     5  0.124340E-01  0.124340E-01  0.254754E-04    24
     1        202     1     2  0.124722E-01  0.124722E-01  0.382131E-04    24
     1        202     1U   16  0.124340E-01  0.124340E-01  0.382131E-04    24
     1        202     2     3  0.124722E-01  0.124722E-01  0.382131E-04    24
     1        202     2U   16  0.124340E-01  0.124340E-01  0.382131E-04    24
     1        202     3     3  0.124436E-01  0.124436E-01  0.955328E-05    24
     1        202     3     4  0.124436E-01  0.124436E-01  0.955328E-05    24
     1        203     1     2  0.124531E-01  0.124531E-01  0.955328E-05    24
     1        203     1     4  0.124531E-01  0.124531E-01  0.955328E-05    24
     1        204     1     2  0.124675E-01  0.124675E-01  0.143299E-04    24
     1        204     1     4  0.124675E-01  0.124675E-01  0.143299E-04    24
     1        205     1     2  0.124889E-01  0.124889E-01  0.214949E-04    24
     1        205     1U   16  0.124675E-01  0.124675E-01  0.214949E-04    24
     1        205     2     3  0.124889E-01  0.124889E-01  0.214949E-04    24
     1        205     2U   15  0.124675E-01  0.124675E-01  0.214949E-04    24
     1        205     3     3  0.124728E-01  0.124728E-01  0.537372E-05    24
     1        205     3     4  0.124728E-01  0.124728E-01  0.537372E-05    24
     1        206     1     2  0.124782E-01  0.124782E-01  0.537372E-05    24
     1        206     1     3  0.124782E-01  0.124782E-01  0.537372E-05    24
     1        207     1     2  0.124863E-01  0.124863E-01  0.806058E-05    24
     1        207     1     4  0.124863E-01  0.124863E-01  0.806058E-05    24
     1        208     1     2  0.124984E-01  0.124984E-01  0.120909E-04    24
     1        208     1     4  0.124984E-01  0.124984E-01  0.120909E-04    24
     1        209     1     2  0.125165E-01  0.125165E-01  0.181363E-04    24
     1        209     1     4  0.125165E-01  0.125165E-01  0.181363E-04    24
     1        210     1     2  0.125437E-01  0.125437E-01  0.272044E-04    24
     1        210     1     4  0.125437E-01  0.125437E-01  0.272044E-04    24
     1        211     1     2  0.125845E-01  0.125845E-01  0.408067E-04    24
     1        211     1     5  0.125845E-01  0.125845E-01  0.408067E-04    24
     1        212     1     2  0.126457E-01  0.126457E-01  0.612100E-04    24
     1        212     1     5  0.126457E-01  0.126457E-01  0.612100E-04    24
     1        213     1     2  0.127375E-01  0.127375E-01  0.918150E-04    24
     1        213     1     5  0.127375E-01  0.127375E-01  0.918150E-04    24
     1        214     1     2  0.128375E-01  0.128375E-01  0.100000E-03    24
     1        214     1     5  0.128375E-01  0.128375E-01  0.100000E-03    24
     1        215     1     2  0.129375E-01  0.129375E-01  0.100000E-03    24
     1        215     1     5  0.129375E-01  0.129375E-01  0.100000E-03    24
     1        216     1     2  0.130000E-01  0.130000E-01  0.624756E-04    25
     1        216     1     5  0.130000E-01  0.130000E-01  0.624756E-04    25
     1        217     1     2  0.131000E-01  0.131000E-01  0.100000E-03    25
     1        217     1     5  0.131000E-01  0.131000E-01  0.100000E-03    25
     1        218     1     2  0.132000E-01  0.132000E-01  0.100000E-03    25
     1        218     1     5  0.132000E-01  0.132000E-01  0.100000E-03    25
     1        219     1     2  0.133000E-01  0.133000E-01  0.100000E-03    25
     1        219     1     5  0.133000E-01  0.133000E-01  0.100000E-03    25
     1        220     1     2  0.134000E-01  0.134000E-01  0.100000E-03    25
     1        220     1     5  0.134000E-01  0.134000E-01  0.100000E-03    25
     1        221     1     2  0.135000E-01  0.135000E-01  0.100000E-03    25
     1        221     1     5  0.135000E-01  0.135000E-01  0.100000E-03    25
     1        222     1     2  0.136000E-01  0.136000E-01  0.100000E-03    25
     1        222     1     5  0.136000E-01  0.136000E-01  0.100000E-03    25
     1        223     1     2  0.137000E-01  0.137000E-01  0.100000E-03    25
     1        223     1     5  0.137000E-01  0.137000E-01  0.100000E-03    25
     1        224     1     2  0.138000E-01  0.138000E-01  0.100000E-03    25
     1        224     1     5  0.138000E-01  0.138000E-01  0.100000E-03    25
     1        225     1     2  0.139000E-01  0.139000E-01  0.100000E-03    25
     1        225     1     5  0.139000E-01  0.139000E-01  0.100000E-03    25
     1        226     1     2  0.140000E-01  0.140000E-01  0.100000E-03    26
     1        226     1     6  0.140000E-01  0.140000E-01  0.100000E-03    26
     1        227     1     2  0.141000E-01  0.141000E-01  0.100000E-03    26
     1        227     1     6  0.141000E-01  0.141000E-01  0.100000E-03    26
     1        228     1     2  0.142000E-01  0.142000E-01  0.100000E-03    26
     1        228     1     6  0.142000E-01  0.142000E-01  0.100000E-03    26
     1        229     1     2  0.143000E-01  0.143000E-01  0.100000E-03    26
     1        229     1     6  0.143000E-01  0.143000E-01  0.100000E-03    26
     1        230     1     2  0.144000E-01  0.144000E-01  0.100000E-03    26
     1        230     1     6  0.144000E-01  0.144000E-01  0.100000E-03    26
     1        231     1     2  0.145000E-01  0.145000E-01  0.100000E-03    26
     1        231     1     6  0.145000E-01  0.145000E-01  0.100000E-03    26
     1        232     1     2  0.146000E-01  0.146000E-01  0.100000E-03    26
     1        232     1     6  0.146000E-01  0.146000E-01  0.100000E-03    26
     1        233     1     2  0.147000E-01  0.147000E-01  0.100000E-03    26
     1        233     1     6  0.147000E-01  0.147000E-01  0.100000E-03    26
     1        234     1     2  0.148000E-01  0.148000E-01  0.100000E-03    26
     1        234     1     6  0.148000E-01  0.148000E-01  0.100000E-03    26
     1        235     1     2  0.149000E-01  0.149000E-01  0.100000E-03    26
     1        235     1     6  0.149000E-01  0.149000E-01  0.100000E-03    26
     1        236     1     2  0.150000E-01  0.150000E-01  0.100000E-03    27
     1        236     1     6  0.150000E-01  0.150000E-01  0.100000E-03    27
     1        237     1     2  0.151000E-01  0.151000E-01  0.100000E-03    27
     1        237     1     6  0.151000E-01  0.151000E-01  0.100000E-03    27
     1        238     1     2  0.152000E-01  0.152000E-01  0.100000E-03    27
     1        238     1     6  0.152000E-01  0.152000E-01  0.100000E-03    27
     1        239     1     2  0.153000E-01  0.153000E-01  0.100000E-03    27
     1        239     1     6  0.153000E-01  0.153000E-01  0.100000E-03    27
     1        240     1     2  0.154000E-01  0.154000E-01  0.100000E-03    27
     1        240     1     6  0.154000E-01  0.154000E-01  0.100000E-03    27
     1        241     1     2  0.155000E-01  0.155000E-01  0.100000E-03    27
     1        241     1     6  0.155000E-01  0.155000E-01  0.100000E-03    27
     1        242     1     2  0.156000E-01  0.156000E-01  0.100000E-03    27
     1        242     1     6  0.156000E-01  0.156000E-01  0.100000E-03    27
     1        243     1     2  0.157000E-01  0.157000E-01  0.100000E-03    27
     1        243     1     6  0.157000E-01  0.157000E-01  0.100000E-03    27
     1        244     1     2  0.158000E-01  0.158000E-01  0.100000E-03    27
     1        244     1     6  0.158000E-01  0.158000E-01  0.100000E-03    27
     1        245     1     2  0.159000E-01  0.159000E-01  0.100000E-03    27
     1        245     1     6  0.159000E-01  0.159000E-01  0.100000E-03    27
     1        246     1     2  0.160000E-01  0.160000E-01  0.100000E-03    28
     1        246     1     7  0.160000E-01  0.160000E-01  0.100000E-03    28
     1        247     1     2  0.161000E-01  0.161000E-01  0.100000E-03    28
     1        247     1     6  0.161000E-01  0.161000E-01  0.100000E-03    28
     1        248     1     2  0.162000E-01  0.162000E-01  0.100000E-03    28
     1        248     1     6  0.162000E-01  0.162000E-01  0.100000E-03    28
     1        249     1     2  0.163000E-01  0.163000E-01  0.100000E-03    28
     1        249     1     5  0.163000E-01  0.163000E-01  0.100000E-03    28
     1        250     1     2  0.164000E-01  0.164000E-01  0.100000E-03    28
     1        250     1     6  0.164000E-01  0.164000E-01  0.100000E-03    28
     1        251     1     2  0.165000E-01  0.165000E-01  0.100000E-03    28
     1        251     1     5  0.165000E-01  0.165000E-01  0.100000E-03    28
     1        252     1     2  0.166000E-01  0.166000E-01  0.100000E-03    28
     1        252     1     5  0.166000E-01  0.166000E-01  0.100000E-03    28
     1        253     1     2  0.167000E-01  0.167000E-01  0.100000E-03    28
     1        253     1     5  0.167000E-01  0.167000E-01  0.100000E-03    28
     1        254     1     2  0.168000E-01  0.168000E-01  0.100000E-03    28
     1        254     1     5  0.168000E-01  0.168000E-01  0.100000E-03    28
     1        255     1     2  0.169000E-01  0.169000E-01  0.100000E-03    28
     1        255     1     5  0.169000E-01  0.169000E-01  0.100000E-03    28
     1        256     1     2  0.170000E-01  0.170000E-01  0.100000E-03    29
     1        256     1     5  0.170000E-01  0.170000E-01  0.100000E-03    29
     1        257     1     2  0.171000E-01  0.171000E-01  0.100000E-03    29
     1        257     1     6  0.171000E-01  0.171000E-01  0.100000E-03    29
     1        258     1     2  0.172000E-01  0.172000E-01  0.100000E-03    29
     1        258     1     5  0.172000E-01  0.172000E-01  0.100000E-03    29
     1        259     1     2  0.173000E-01  0.173000E-01  0.100000E-03    29
     1        259     1     6  0.173000E-01  0.173000E-01  0.100000E-03    29
     1        260     1     2  0.174000E-01  0.174000E-01  0.100000E-03    29
     1        260     1     6  0.174000E-01  0.174000E-01  0.100000E-03    29
     1        261     1     2  0.175000E-01  0.175000E-01  0.100000E-03    29
     1        261     1     6  0.175000E-01  0.175000E-01  0.100000E-03    29
     1        262     1     2  0.176000E-01  0.176000E-01  0.100000E-03    29
     1        262     1     6  0.176000E-01  0.176000E-01  0.100000E-03    29
     1        263     1     2  0.177000E-01  0.177000E-01  0.100000E-03    29
     1        263     1     6  0.177000E-01  0.177000E-01  0.100000E-03    29
     1        264     1     2  0.178000E-01  0.178000E-01  0.100000E-03    29
     1        264     1     6  0.178000E-01  0.178000E-01  0.100000E-03    29
     1        265     1     2  0.179000E-01  0.179000E-01  0.100000E-03    29
     1        265     1     5  0.179000E-01  0.179000E-01  0.100000E-03    29
     1        266     1     2  0.180000E-01  0.180000E-01  0.100000E-03    30
     1        266     1     5  0.180000E-01  0.180000E-01  0.100000E-03    30
     1        267     1     2  0.181000E-01  0.181000E-01  0.100000E-03    30
     1        267     1     5  0.181000E-01  0.181000E-01  0.100000E-03    30
     1        268     1     2  0.182000E-01  0.182000E-01  0.100000E-03    30
     1        268     1     5  0.182000E-01  0.182000E-01  0.100000E-03    30
     1        269     1     2  0.183000E-01  0.183000E-01  0.100000E-03    30
     1        269     1     5  0.183000E-01  0.183000E-01  0.100000E-03    30
     1        270     1     2  0.184000E-01  0.184000E-01  0.100000E-03    30
     1        270     1     5  0.184000E-01  0.184000E-01  0.100000E-03    30
     1        271     1     2  0.185000E-01  0.185000E-01  0.100000E-03    30
     1        271     1     5  0.185000E-01  0.185000E-01  0.100000E-03    30
     1        272     1     2  0.186000E-01  0.186000E-01  0.100000E-03    30
     1        272     1     5  0.186000E-01  0.186000E-01  0.100000E-03    30
     1        273     1     2  0.187000E-01  0.187000E-01  0.100000E-03    30
     1        273     1     5  0.187000E-01  0.187000E-01  0.100000E-03    30
     1        274     1     2  0.188000E-01  0.188000E-01  0.100000E-03    30
     1        274     1     6  0.188000E-01  0.188000E-01  0.100000E-03    30
     1        275     1     2  0.189000E-01  0.189000E-01  0.100000E-03    30
     1        275     1     5  0.189000E-01  0.189000E-01  0.100000E-03    30
     1        276     1     2  0.190000E-01  0.190000E-01  0.100000E-03    31
     1        276     1     5  0.190000E-01  0.190000E-01  0.100000E-03    31
     1        277     1     2  0.191000E-01  0.191000E-01  0.100000E-03    31
     1        277     1     5  0.191000E-01  0.191000E-01  0.100000E-03    31
     1        278     1     2  0.192000E-01  0.192000E-01  0.100000E-03    31
     1        278     1     5  0.192000E-01  0.192000E-01  0.100000E-03    31
     1        279     1     2  0.193000E-01  0.193000E-01  0.100000E-03    31
     1        279     1     5  0.193000E-01  0.193000E-01  0.100000E-03    31
     1        280     1     2  0.194000E-01  0.194000E-01  0.100000E-03    31
     1        280     1     6  0.194000E-01  0.194000E-01  0.100000E-03    31
     1        281     1     2  0.195000E-01  0.195000E-01  0.100000E-03    31
     1        281     1     5  0.195000E-01  0.195000E-01  0.100000E-03    31
     1        282     1     2  0.196000E-01  0.196000E-01  0.100000E-03    31
     1        282     1     5  0.196000E-01  0.196000E-01  0.100000E-03    31
     1        283     1     2  0.197000E-01  0.197000E-01  0.100000E-03    31
     1        283     1     5  0.197000E-01  0.197000E-01  0.100000E-03    31
     1        284     1     2  0.198000E-01  0.198000E-01  0.100000E-03    31
     1        284     1     5  0.198000E-01  0.198000E-01  0.100000E-03    31
     1        285     1     2  0.199000E-01  0.199000E-01  0.100000E-03    31
     1        285     1     5  0.199000E-01  0.199000E-01  0.100000E-03    31
     1        286     1     2  0.200000E-01  0.200000E-01  0.100000E-03    32
     1        286     1     5  0.200000E-01  0.200000E-01  0.100000E-03    32
     1        287     1     2  0.201000E-01  0.201000E-01  0.100000E-03    32
     1        287     1     6  0.201000E-01  0.201000E-01  0.100000E-03    32
     1        288     1     2  0.202000E-01  0.202000E-01  0.100000E-03    32
     1        288     1     6  0.202000E-01  0.202000E-01  0.100000E-03    32
     1        289     1     2  0.203000E-01  0.203000E-01  0.100000E-03    32
     1        289     1     6  0.203000E-01  0.203000E-01  0.100000E-03    32
     1        290     1     2  0.204000E-01  0.204000E-01  0.100000E-03    32
     1        290     1     6  0.204000E-01  0.204000E-01  0.100000E-03    32
     1        291     1     2  0.205000E-01  0.205000E-01  0.100000E-03    32
     1        291     1     6  0.205000E-01  0.205000E-01  0.100000E-03    32
     1        292     1     2  0.206000E-01  0.206000E-01  0.100000E-03    32
     1        292     1     6  0.206000E-01  0.206000E-01  0.100000E-03    32
     1        293     1     2  0.207000E-01  0.207000E-01  0.100000E-03    32
     1        293     1     6  0.207000E-01  0.207000E-01  0.100000E-03    32
     1        294     1     2  0.208000E-01  0.208000E-01  0.100000E-03    32
     1        294     1     7  0.208000E-01  0.208000E-01  0.100000E-03    32
     1        295     1     2  0.209000E-01  0.209000E-01  0.100000E-03    32
     1        295     1     7  0.209000E-01  0.209000E-01  0.100000E-03    32
     1        296     1     2  0.210000E-01  0.210000E-01  0.100000E-03    33
     1        296     1     6  0.210000E-01  0.210000E-01  0.100000E-03    33
     1        297     1     2  0.211000E-01  0.211000E-01  0.100000E-03    33
     1        297     1     6  0.211000E-01  0.211000E-01  0.100000E-03    33
     1        298     1     2  0.212000E-01  0.212000E-01  0.100000E-03    33
     1        298     1     6  0.212000E-01  0.212000E-01  0.100000E-03    33
     1        299     1     2  0.213000E-01  0.213000E-01  0.100000E-03    33
     1        299     1     6  0.213000E-01  0.213000E-01  0.100000E-03    33
     1        300     1     2  0.214000E-01  0.214000E-01  0.100000E-03    33
     1        300     1     6  0.214000E-01  0.214000E-01  0.100000E-03    33
     1        301     1     2  0.215000E-01  0.215000E-01  0.100000E-03    33
     1        301     1     6  0.215000E-01  0.215000E-01  0.100000E-03    33
     1        302     1     2  0.216000E-01  0.216000E-01  0.100000E-03    33
     1        302     1     6  0.216000E-01  0.216000E-01  0.100000E-03    33
     1        303     1     2  0.217000E-01  0.217000E-01  0.100000E-03    33
     1        303     1     6  0.217000E-01  0.217000E-01  0.100000E-03    33
     1        304     1     2  0.218000E-01  0.218000E-01  0.100000E-03    33
     1        304     1     6  0.218000E-01  0.218000E-01  0.100000E-03    33
     1        305     1     2  0.219000E-01  0.219000E-01  0.100000E-03    33
     1        305     1     6  0.219000E-01  0.219000E-01  0.100000E-03    33
     1        306     1     2  0.220000E-01  0.220000E-01  0.100000E-03    34
     1        306     1     7  0.220000E-01  0.220000E-01  0.100000E-03    34
     1        307     1     2  0.221000E-01  0.221000E-01  0.100000E-03    34
     1        307     1     7  0.221000E-01  0.221000E-01  0.100000E-03    34
     1        308     1     2  0.222000E-01  0.222000E-01  0.100000E-03    34
     1        308     1     7  0.222000E-01  0.222000E-01  0.100000E-03    34
     1        309     1     2  0.223000E-01  0.223000E-01  0.100000E-03    34
     1        309     1     8  0.223000E-01  0.223000E-01  0.100000E-03    34
     1        310     1     2  0.224000E-01  0.224000E-01  0.100000E-03    34
     1        310     1     8  0.224000E-01  0.224000E-01  0.100000E-03    34
     1        311     1     2  0.225000E-01  0.225000E-01  0.100000E-03    34
     1        311     1    12  0.225000E-01  0.225000E-01  0.100000E-03    34
     1        312     1     2  0.226000E-01  0.226000E-01  0.100000E-03    34
     1        312     1U   16  0.225000E-01  0.225000E-01  0.100000E-03    34
     1        312     2     3  0.226000E-01  0.226000E-01  0.100000E-03    34
     1        312     2U   16  0.225000E-01  0.225000E-01  0.100000E-03    34
     1        312     3     3  0.225250E-01  0.225250E-01  0.250000E-04    34
     1        312     3     5  0.225250E-01  0.225250E-01  0.250000E-04    34
     1        313     1     2  0.225500E-01  0.225500E-01  0.250000E-04    34
     1        313     1     4  0.225500E-01  0.225500E-01  0.250000E-04    34
     1        314     1     2  0.225875E-01  0.225875E-01  0.375000E-04    34
     1        314     1     5  0.225875E-01  0.225875E-01  0.375000E-04    34
     1        315     1     2  0.226438E-01  0.226438E-01  0.562500E-04    34
     1        315     1     6  0.226438E-01  0.226438E-01  0.562500E-04    34
     1        316     1     2  0.227281E-01  0.227281E-01  0.843750E-04    34
     1        316     1     9  0.227281E-01  0.227281E-01  0.843750E-04    34
     1        317     1     2  0.228281E-01  0.228281E-01  0.100000E-03    34
     1        317     1U   16  0.227281E-01  0.227281E-01  0.100000E-03    34
     1        317     2     3  0.228281E-01  0.228281E-01  0.100000E-03    34
     1        317     2U   16  0.227281E-01  0.227281E-01  0.100000E-03    34
     1        317     3     3  0.227531E-01  0.227531E-01  0.250000E-04    34
     1        317     3     5  0.227531E-01  0.227531E-01  0.250000E-04    34
     1        318     1     2  0.227781E-01  0.227781E-01  0.250000E-04    34
     1        318     1     5  0.227781E-01  0.227781E-01  0.250000E-04    34
     1        319     1     2  0.228156E-01  0.228156E-01  0.375000E-04    34
     1        319     1     5  0.228156E-01  0.228156E-01  0.375000E-04    34
     1        320     1     2  0.228719E-01  0.228719E-01  0.562500E-04    34
     1        320     1     6  0.228719E-01  0.228719E-01  0.562500E-04    34
     1        321     1     2  0.229563E-01  0.229563E-01  0.843750E-04    34
     1        321     1     8  0.229563E-01  0.229563E-01  0.843750E-04    34
     1        322     1     2  0.230000E-01  0.230000E-01  0.437500E-04    35
     1        322     1     5  0.230000E-01  0.230000E-01  0.437500E-04    35
     1        323     1     2  0.231000E-01  0.231000E-01  0.100000E-03    35
     1        323     1U   12  0.230000E-01  0.230000E-01  0.100000E-03    35
     1        323     2     3  0.231000E-01  0.231000E-01  0.100000E-03    35
     1        323     2U   15  0.230000E-01  0.230000E-01  0.100000E-03    35
     1        323     3     3  0.230250E-01  0.230250E-01  0.250000E-04    35
     1        323     3     5  0.230250E-01  0.230250E-01  0.250000E-04    35
     1        324     1     2  0.230500E-01  0.230500E-01  0.250000E-04    35
     1        324     1     5  0.230500E-01  0.230500E-01  0.250000E-04    35
     1        325     1     2  0.230875E-01  0.230875E-01  0.375000E-04    35
     1        325     1     5  0.230875E-01  0.230875E-01  0.375000E-04    35
     1        326     1     2  0.231437E-01  0.231437E-01  0.562500E-04    35
     1        326     1     5  0.231437E-01  0.231437E-01  0.562500E-04    35
     1        327     1     2  0.232281E-01  0.232281E-01  0.843750E-04    35
     1        327     1U   16  0.231437E-01  0.231437E-01  0.843750E-04    35
     1        327     2     3  0.232281E-01  0.232281E-01  0.843750E-04    35
     1        327     2U   16  0.231437E-01  0.231437E-01  0.843750E-04    35
     1        327     3     3  0.231648E-01  0.231648E-01  0.210938E-04    35
     1        327     3     5  0.231648E-01  0.231648E-01  0.210938E-04    35
     1        328     1     2  0.231859E-01  0.231859E-01  0.210938E-04    35
     1        328     1     5  0.231859E-01  0.231859E-01  0.210938E-04    35
     1        329     1     2  0.232176E-01  0.232176E-01  0.316406E-04    35
     1        329     1     5  0.232176E-01  0.232176E-01  0.316406E-04    35
     1        330     1     2  0.232650E-01  0.232650E-01  0.474609E-04    35
     1        330     1     5  0.232650E-01  0.232650E-01  0.474609E-04    35
     1        331     1     2  0.233362E-01  0.233362E-01  0.711914E-04    35
     1        331     1U   15  0.232650E-01  0.232650E-01  0.711914E-04    35
     1        331     2     3  0.233362E-01  0.233362E-01  0.711914E-04    35
     1        331     2U   16  0.232650E-01  0.232650E-01  0.711914E-04    35
     1        331     3     3  0.232828E-01  0.232828E-01  0.177979E-04    35
     1        331     3     5  0.232828E-01  0.232828E-01  0.177979E-04    35
     1        332     1     2  0.233006E-01  0.233006E-01  0.177979E-04    35
     1        332     1     5  0.233006E-01  0.233006E-01  0.177979E-04    35
     1        333     1     2  0.233273E-01  0.233273E-01  0.266968E-04    35
     1        333     1     5  0.233273E-01  0.233273E-01  0.266968E-04    35
     1        334     1     2  0.233674E-01  0.233674E-01  0.400452E-04    35
     1        334     1     5  0.233674E-01  0.233674E-01  0.400452E-04    35
     1        335     1     2  0.234274E-01  0.234274E-01  0.600677E-04    35
     1        335     1     9  0.234274E-01  0.234274E-01  0.600677E-04    35
     1        336     1     2  0.235175E-01  0.235175E-01  0.901016E-04    35
     1        336     1U   11  0.234274E-01  0.234274E-01  0.901016E-04    35
     1        336     2     3  0.235175E-01  0.235175E-01  0.901016E-04    35
     1        336     2U   12  0.234274E-01  0.234274E-01  0.901016E-04    35
     1        336     3     3  0.234500E-01  0.234500E-01  0.225254E-04    35
     1        336     3     5  0.234500E-01  0.234500E-01  0.225254E-04    35
     1        337     1     2  0.234725E-01  0.234725E-01  0.225254E-04    35
     1        337     1     5  0.234725E-01  0.234725E-01  0.225254E-04    35
     1        338     1     2  0.235063E-01  0.235063E-01  0.337881E-04    35
     1        338     1     5  0.235063E-01  0.235063E-01  0.337881E-04    35
     1        339     1     2  0.235570E-01  0.235570E-01  0.506822E-04    35
     1        339     1     7  0.235570E-01  0.235570E-01  0.506822E-04    35
     1        340     1     2  0.236330E-01  0.236330E-01  0.760232E-04    35
     1        340     1U   10  0.235570E-01  0.235570E-01  0.760232E-04    35
     1        340     2     3  0.236330E-01  0.236330E-01  0.760232E-04    35
     1        340     2U   10  0.235570E-01  0.235570E-01  0.760232E-04    35
     1        340     3     3  0.235760E-01  0.235760E-01  0.190058E-04    35
     1        340     3     5  0.235760E-01  0.235760E-01  0.190058E-04    35
     1        341     1     2  0.235950E-01  0.235950E-01  0.190058E-04    35
     1        341     1     5  0.235950E-01  0.235950E-01  0.190058E-04    35
     1        342     1     2  0.236235E-01  0.236235E-01  0.285087E-04    35
     1        342     1     5  0.236235E-01  0.236235E-01  0.285087E-04    35
     1        343     1     2  0.236662E-01  0.236662E-01  0.427631E-04    35
     1        343     1     6  0.236662E-01  0.236662E-01  0.427631E-04    35
     1        344     1     2  0.237304E-01  0.237304E-01  0.641446E-04    35
     1        344     1U   16  0.236662E-01  0.236662E-01  0.641446E-04    35
     1        344     2     3  0.237304E-01  0.237304E-01  0.641446E-04    35
     1        344     2U   16  0.236662E-01  0.236662E-01  0.641446E-04    35
     1        344     3     3  0.236823E-01  0.236823E-01  0.160362E-04    35
     1        344     3     5  0.236823E-01  0.236823E-01  0.160362E-04    35
     1        345     1     2  0.236983E-01  0.236983E-01  0.160362E-04    35
     1        345     1     5  0.236983E-01  0.236983E-01  0.160362E-04    35
     1        346     1     2  0.237224E-01  0.237224E-01  0.240542E-04    35
     1        346     1     6  0.237224E-01  0.237224E-01  0.240542E-04    35
     1        347     1     2  0.237585E-01  0.237585E-01  0.360813E-04    35
     1        347     1     6  0.237585E-01  0.237585E-01  0.360813E-04    35
     1        348     1     2  0.238126E-01  0.238126E-01  0.541220E-04    35
     1        348     1U   14  0.237585E-01  0.237585E-01  0.541220E-04    35
     1        348     2     3  0.238126E-01  0.238126E-01  0.541220E-04    35
     1        348     2U   15  0.237585E-01  0.237585E-01  0.541220E-04    35
     1        348     3     3  0.237720E-01  0.237720E-01  0.135305E-04    35
     1        348     3     5  0.237720E-01  0.237720E-01  0.135305E-04    35
     1        349     1     2  0.237855E-01  0.237855E-01  0.135305E-04    35
     1        349     1     5  0.237855E-01  0.237855E-01  0.135305E-04    35
     1        350     1     2  0.238058E-01  0.238058E-01  0.202958E-04    35
     1        350     1     5  0.238058E-01  0.238058E-01  0.202958E-04    35
     1        351     1     2  0.238363E-01  0.238363E-01  0.304436E-04    35
     1        351     1     6  0.238363E-01  0.238363E-01  0.304436E-04    35
     1        352     1     2  0.238819E-01  0.238819E-01  0.456655E-04    35
     1        352     1U   15  0.238363E-01  0.238363E-01  0.456655E-04    35
     1        352     2     3  0.238819E-01  0.238819E-01  0.456655E-04    35
     1        352     2U   15  0.238363E-01  0.238363E-01  0.456655E-04    35
     1        352     3     3  0.238477E-01  0.238477E-01  0.114164E-04    35
     1        352     3     5  0.238477E-01  0.238477E-01  0.114164E-04    35
     1        353     1     2  0.238591E-01  0.238591E-01  0.114164E-04    35
     1        353     1     5  0.238591E-01  0.238591E-01  0.114164E-04    35
     1        354     1     2  0.238762E-01  0.238762E-01  0.171245E-04    35
     1        354     1     5  0.238762E-01  0.238762E-01  0.171245E-04    35
     1        355     1     2  0.239019E-01  0.239019E-01  0.256868E-04    35
     1        355     1     6  0.239019E-01  0.239019E-01  0.256868E-04    35
     1        356     1     2  0.239404E-01  0.239404E-01  0.385302E-04    35
     1        356     1     7  0.239404E-01  0.239404E-01  0.385302E-04    35
     1        357     1     2  0.239982E-01  0.239982E-01  0.577953E-04    35
     1        357     1U   14  0.239404E-01  0.239404E-01  0.577953E-04    35
     1        357     2     3  0.239982E-01  0.239982E-01  0.577953E-04    35
     1        357     2U   14  0.239404E-01  0.239404E-01  0.577953E-04    35
     1        357     3     3  0.239549E-01  0.239549E-01  0.144488E-04    35
     1        357     3     5  0.239549E-01  0.239549E-01  0.144488E-04    35
     1        358     1     2  0.239693E-01  0.239693E-01  0.144488E-04    35
     1        358     1     5  0.239693E-01  0.239693E-01  0.144488E-04    35
     1        359     1     2  0.239910E-01  0.239910E-01  0.216733E-04    35
     1        359     1     5  0.239910E-01  0.239910E-01  0.216733E-04    35
     1        360     1     2  0.240000E-01  0.240000E-01  0.899753E-05    36
     1        360     1     5  0.240000E-01  0.240000E-01  0.899753E-05    36
     1        361     1     2  0.240488E-01  0.240488E-01  0.487648E-04    36
     1        361     1U   13  0.240000E-01  0.240000E-01  0.487648E-04    36
     1        361     2     3  0.240488E-01  0.240488E-01  0.487648E-04    36
     1        361     2U   12  0.240000E-01  0.240000E-01  0.487648E-04    36
     1        361     3     3  0.240122E-01  0.240122E-01  0.121912E-04    36
     1        361     3     5  0.240122E-01  0.240122E-01  0.121912E-04    36
     1        362     1     2  0.240244E-01  0.240244E-01  0.121912E-04    36
     1        362     1     5  0.240244E-01  0.240244E-01  0.121912E-04    36
     1        363     1     2  0.240427E-01  0.240427E-01  0.182868E-04    36
     1        363     1     5  0.240427E-01  0.240427E-01  0.182868E-04    36
     1        364     1     2  0.240701E-01  0.240701E-01  0.274302E-04    36
     1        364     1     5  0.240701E-01  0.240701E-01  0.274302E-04    36
     1        365     1     2  0.241112E-01  0.241112E-01  0.411453E-04    36
     1        365     1     5  0.241112E-01  0.241112E-01  0.411453E-04    36
     1        366     1     2  0.241730E-01  0.241730E-01  0.617180E-04    36
     1        366     1     5  0.241730E-01  0.241730E-01  0.617180E-04    36
     1        367     1     2  0.242655E-01  0.242655E-01  0.925770E-04    36
     1        367     1     5  0.242655E-01  0.242655E-01  0.925770E-04    36
     1        368     1     2  0.243655E-01  0.243655E-01  0.100000E-03    36
     1        368     1     5  0.243655E-01  0.243655E-01  0.100000E-03    36
     1        369     1     2  0.244655E-01  0.244655E-01  0.100000E-03    36
     1        369     1     5  0.244655E-01  0.244655E-01  0.100000E-03    36
     1        370     1     2  0.245655E-01  0.245655E-01  0.100000E-03    36
     1        370     1     5  0.245655E-01  0.245655E-01  0.100000E-03    36
     1        371     1     2  0.246655E-01  0.246655E-01  0.100000E-03    36
     1        371     1     5  0.246655E-01  0.246655E-01  0.100000E-03    36
     1        372     1     2  0.247655E-01  0.247655E-01  0.100000E-03    36
     1        372     1     5  0.247655E-01  0.247655E-01  0.100000E-03    36
     1        373     1     2  0.248655E-01  0.248655E-01  0.100000E-03    36
     1        373     1     5  0.248655E-01  0.248655E-01  0.100000E-03    36
     1        374     1     2  0.249655E-01  0.249655E-01  0.100000E-03    36
     1        374     1     5  0.249655E-01  0.249655E-01  0.100000E-03    36
     1        375     1     2  0.250000E-01  0.250000E-01  0.344603E-04    37
     1        375     1     5  0.250000E-01  0.250000E-01  0.344603E-04    37
     1        376     1     2  0.251000E-01  0.251000E-01  0.100000E-03    37
     1        376     1     5  0.251000E-01  0.251000E-01  0.100000E-03    37
     1        377     1     2  0.252000E-01  0.252000E-01  0.100000E-03    37
     1        377     1     5  0.252000E-01  0.252000E-01  0.100000E-03    37
     1        378     1     2  0.253000E-01  0.253000E-01  0.100000E-03    37
     1        378     1     5  0.253000E-01  0.253000E-01  0.100000E-03    37
     1        379     1     2  0.254000E-01  0.254000E-01  0.100000E-03    37
     1        379     1     5  0.254000E-01  0.254000E-01  0.100000E-03    37
     1        380     1     2  0.255000E-01  0.255000E-01  0.100000E-03    37
     1        380     1     5  0.255000E-01  0.255000E-01  0.100000E-03    37
     1        381     1     2  0.256000E-01  0.256000E-01  0.100000E-03    37
     1        381     1     5  0.256000E-01  0.256000E-01  0.100000E-03    37
     1        382     1     2  0.257000E-01  0.257000E-01  0.100000E-03    37
     1        382     1     5  0.257000E-01  0.257000E-01  0.100000E-03    37
     1        383     1     2  0.258000E-01  0.258000E-01  0.100000E-03    37
     1        383     1     5  0.258000E-01  0.258000E-01  0.100000E-03    37
     1        384     1     2  0.259000E-01  0.259000E-01  0.100000E-03    37
     1        384     1     5  0.259000E-01  0.259000E-01  0.100000E-03    37
     1        385     1     2  0.260000E-01  0.260000E-01  0.100000E-03    38
     1        385     1     5  0.260000E-01  0.260000E-01  0.100000E-03    38
     1        386     1     2  0.261000E-01  0.261000E-01  0.100000E-03    38
     1        386     1     5  0.261000E-01  0.261000E-01  0.100000E-03    38
     1        387     1     2  0.262000E-01  0.262000E-01  0.100000E-03    38
     1        387     1     5  0.262000E-01  0.262000E-01  0.100000E-03    38
     1        388     1     2  0.263000E-01  0.263000E-01  0.100000E-03    38
     1        388     1     5  0.263000E-01  0.263000E-01  0.100000E-03    38
     1        389     1     2  0.264000E-01  0.264000E-01  0.100000E-03    38
     1        389     1     5  0.264000E-01  0.264000E-01  0.100000E-03    38
     1        390     1     2  0.265000E-01  0.265000E-01  0.100000E-03    38
     1        390     1     5  0.265000E-01  0.265000E-01  0.100000E-03    38
     1        391     1     2  0.266000E-01  0.266000E-01  0.100000E-03    38
     1        391     1     5  0.266000E-01  0.266000E-01  0.100000E-03    38
     1        392     1     2  0.267000E-01  0.267000E-01  0.100000E-03    38
     1        392     1     5  0.267000E-01  0.267000E-01  0.100000E-03    38
     1        393     1     2  0.268000E-01  0.268000E-01  0.100000E-03    38
     1        393     1     5  0.268000E-01  0.268000E-01  0.100000E-03    38
     1        394     1     2  0.269000E-01  0.269000E-01  0.100000E-03    38
     1        394     1     5  0.269000E-01  0.269000E-01  0.100000E-03    38
     1        395     1     2  0.270000E-01  0.270000E-01  0.100000E-03    39
     1        395     1     5  0.270000E-01  0.270000E-01  0.100000E-03    39
     1        396     1     2  0.271000E-01  0.271000E-01  0.100000E-03    39
     1        396     1     5  0.271000E-01  0.271000E-01  0.100000E-03    39
     1        397     1     2  0.272000E-01  0.272000E-01  0.100000E-03    39
     1        397     1     5  0.272000E-01  0.272000E-01  0.100000E-03    39
     1        398     1     2  0.273000E-01  0.273000E-01  0.100000E-03    39
     1        398     1     5  0.273000E-01  0.273000E-01  0.100000E-03    39
     1        399     1     2  0.274000E-01  0.274000E-01  0.100000E-03    39
     1        399     1     5  0.274000E-01  0.274000E-01  0.100000E-03    39
     1        400     1     2  0.275000E-01  0.275000E-01  0.100000E-03    39
     1        400     1     5  0.275000E-01  0.275000E-01  0.100000E-03    39
     1        401     1     2  0.276000E-01  0.276000E-01  0.100000E-03    39
     1        401     1     5  0.276000E-01  0.276000E-01  0.100000E-03    39
     1        402     1     2  0.277000E-01  0.277000E-01  0.100000E-03    39
     1        402     1     5  0.277000E-01  0.277000E-01  0.100000E-03    39
     1        403     1     2  0.278000E-01  0.278000E-01  0.100000E-03    39
     1        403     1     5  0.278000E-01  0.278000E-01  0.100000E-03    39
     1        404     1     2  0.279000E-01  0.279000E-01  0.100000E-03    39
     1        404     1     5  0.279000E-01  0.279000E-01  0.100000E-03    39
     1        405     1     2  0.280000E-01  0.280000E-01  0.100000E-03    40
     1        405     1     5  0.280000E-01  0.280000E-01  0.100000E-03    40
     1        406     1     2  0.281000E-01  0.281000E-01  0.100000E-03    40
     1        406     1     5  0.281000E-01  0.281000E-01  0.100000E-03    40
     1        407     1     2  0.282000E-01  0.282000E-01  0.100000E-03    40
     1        407     1     5  0.282000E-01  0.282000E-01  0.100000E-03    40
     1        408     1     2  0.283000E-01  0.283000E-01  0.100000E-03    40
     1        408     1     5  0.283000E-01  0.283000E-01  0.100000E-03    40
     1        409     1     2  0.284000E-01  0.284000E-01  0.100000E-03    40
     1        409     1     5  0.284000E-01  0.284000E-01  0.100000E-03    40
     1        410     1     2  0.285000E-01  0.285000E-01  0.100000E-03    40
     1        410     1     5  0.285000E-01  0.285000E-01  0.100000E-03    40
     1        411     1     2  0.286000E-01  0.286000E-01  0.100000E-03    40
     1        411     1     5  0.286000E-01  0.286000E-01  0.100000E-03    40
     1        412     1     2  0.287000E-01  0.287000E-01  0.100000E-03    40
     1        412     1     5  0.287000E-01  0.287000E-01  0.100000E-03    40
     1        413     1     2  0.288000E-01  0.288000E-01  0.100000E-03    40
     1        413     1     5  0.288000E-01  0.288000E-01  0.100000E-03    40
     1        414     1     2  0.289000E-01  0.289000E-01  0.100000E-03    40
     1        414     1     5  0.289000E-01  0.289000E-01  0.100000E-03    40
     1        415     1     2  0.290000E-01  0.290000E-01  0.100000E-03    41
     1        415     1     5  0.290000E-01  0.290000E-01  0.100000E-03    41
     1        416     1     2  0.291000E-01  0.291000E-01  0.100000E-03    41
     1        416     1     5  0.291000E-01  0.291000E-01  0.100000E-03    41
     1        417     1     2  0.292000E-01  0.292000E-01  0.100000E-03    41
     1        417     1     5  0.292000E-01  0.292000E-01  0.100000E-03    41
     1        418     1     2  0.293000E-01  0.293000E-01  0.100000E-03    41
     1        418     1     5  0.293000E-01  0.293000E-01  0.100000E-03    41
     1        419     1     2  0.294000E-01  0.294000E-01  0.100000E-03    41
     1        419     1     5  0.294000E-01  0.294000E-01  0.100000E-03    41
     1        420     1     2  0.295000E-01  0.295000E-01  0.100000E-03    41
     1        420     1     5  0.295000E-01  0.295000E-01  0.100000E-03    41
     1        421     1     2  0.296000E-01  0.296000E-01  0.100000E-03    41
     1        421     1     5  0.296000E-01  0.296000E-01  0.100000E-03    41
     1        422     1     2  0.297000E-01  0.297000E-01  0.100000E-03    41
     1        422     1     5  0.297000E-01  0.297000E-01  0.100000E-03    41
     1        423     1     2  0.298000E-01  0.298000E-01  0.100000E-03    41
     1        423     1     5  0.298000E-01  0.298000E-01  0.100000E-03    41
     1        424     1     2  0.299000E-01  0.299000E-01  0.100000E-03    41
     1        424     1     5  0.299000E-01  0.299000E-01  0.100000E-03    41
     1        425     1     2  0.300000E-01  0.300000E-01  0.100000E-03    42
     1        425     1     5  0.300000E-01  0.300000E-01  0.100000E-03    42
     1        426     1     2  0.301000E-01  0.301000E-01  0.100000E-03    42
     1        426     1     5  0.301000E-01  0.301000E-01  0.100000E-03    42
     1        427     1     2  0.302000E-01  0.302000E-01  0.100000E-03    42
     1        427     1     5  0.302000E-01  0.302000E-01  0.100000E-03    42
     1        428     1     2  0.303000E-01  0.303000E-01  0.100000E-03    42
     1        428     1     5  0.303000E-01  0.303000E-01  0.100000E-03    42
     1        429     1     2  0.304000E-01  0.304000E-01  0.100000E-03    42
     1        429     1     5  0.304000E-01  0.304000E-01  0.100000E-03    42
     1        430     1     2  0.305000E-01  0.305000E-01  0.100000E-03    42
     1        430     1     5  0.305000E-01  0.305000E-01  0.100000E-03    42
     1        431     1     2  0.306000E-01  0.306000E-01  0.100000E-03    42
     1        431     1     5  0.306000E-01  0.306000E-01  0.100000E-03    42
     1        432     1     2  0.307000E-01  0.307000E-01  0.100000E-03    42
     1        432     1     6  0.307000E-01  0.307000E-01  0.100000E-03    42
     1        433     1     2  0.308000E-01  0.308000E-01  0.100000E-03    42
     1        433     1     6  0.308000E-01  0.308000E-01  0.100000E-03    42
     1        434     1     2  0.309000E-01  0.309000E-01  0.100000E-03    42
     1        434     1     6  0.309000E-01  0.309000E-01  0.100000E-03    42
[...]
     5       1175     1     2  0.423882E+01  0.109000E+00  0.100000E-03   266
     5       1175     1     8  0.423882E+01  0.109000E+00  0.100000E-03   266
     5       1176     1     2  0.423892E+01  0.109100E+00  0.100000E-03   266
     5       1176     1     8  0.423892E+01  0.109100E+00  0.100000E-03   266
     5       1177     1     2  0.423902E+01  0.109200E+00  0.100000E-03   266
     5       1177     1     8  0.423902E+01  0.109200E+00  0.100000E-03   266
     5       1178     1     2  0.423912E+01  0.109300E+00  0.100000E-03   266
     5       1178     1     8  0.423912E+01  0.109300E+00  0.100000E-03   266
     5       1179     1     2  0.423922E+01  0.109400E+00  0.100000E-03   266
     5       1179     1     8  0.423922E+01  0.109400E+00  0.100000E-03   266
     5       1180     1     2  0.423932E+01  0.109500E+00  0.100000E-03   266
     5       1180     1     8  0.423932E+01  0.109500E+00  0.100000E-03   266
     5       1181     1     2  0.423942E+01  0.109600E+00  0.100000E-03   266
     5       1181     1     8  0.423942E+01  0.109600E+00  0.100000E-03   266
     5       1182     1     2  0.423952E+01  0.109700E+00  0.100000E-03   266
     5       1182     1     9  0.423952E+01  0.109700E+00  0.100000E-03   266
     5       1183     1     2  0.423962E+01  0.109800E+00  0.100000E-03   266
     5       1183     1     9  0.423962E+01  0.109800E+00  0.100000E-03   266
     5       1184     1     2  0.423972E+01  0.109900E+00  0.100000E-03   266
     5       1184     1     9  0.423972E+01  0.109900E+00  0.100000E-03   266
     5       1185     1     2  0.423982E+01  0.110000E+00  0.100000E-03   267
     5       1185     1     9  0.423982E+01  0.110000E+00  0.100000E-03   267
     5       1186     1     2  0.423992E+01  0.110100E+00  0.100000E-03   267
     5       1186     1     9  0.423992E+01  0.110100E+00  0.100000E-03   267
     5       1187     1     2  0.424002E+01  0.110200E+00  0.100000E-03   267
     5       1187     1     9  0.424002E+01  0.110200E+00  0.100000E-03   267
     5       1188     1     2  0.424012E+01  0.110300E+00  0.100000E-03   267
     5       1188     1     9  0.424012E+01  0.110300E+00  0.100000E-03   267
     5       1189     1     2  0.424022E+01  0.110400E+00  0.100000E-03   267
     5       1189     1     9  0.424022E+01  0.110400E+00  0.100000E-03   267
     5       1190     1     2  0.424032E+01  0.110500E+00  0.100000E-03   267
     5       1190     1     9  0.424032E+01  0.110500E+00  0.100000E-03   267
     5       1191     1     2  0.424042E+01  0.110600E+00  0.100000E-03   267
     5       1191     1     9  0.424042E+01  0.110600E+00  0.100000E-03   267
     5       1192     1     2  0.424052E+01  0.110700E+00  0.100000E-03   267
     5       1192     1     9  0.424052E+01  0.110700E+00  0.100000E-03   267
     5       1193     1     2  0.424062E+01  0.110800E+00  0.100000E-03   267
     5       1193     1     9  0.424062E+01  0.110800E+00  0.100000E-03   267
     5       1194     1     2  0.424072E+01  0.110900E+00  0.100000E-03   267
     5       1194     1     9  0.424072E+01  0.110900E+00  0.100000E-03   267
     5       1195     1     2  0.424082E+01  0.111000E+00  0.100000E-03   268
     5       1195     1     9  0.424082E+01  0.111000E+00  0.100000E-03   268
     5       1196     1     2  0.424092E+01  0.111100E+00  0.100000E-03   268
     5       1196     1     9  0.424092E+01  0.111100E+00  0.100000E-03   268
     5       1197     1     2  0.424102E+01  0.111200E+00  0.100000E-03   268
     5       1197     1     9  0.424102E+01  0.111200E+00  0.100000E-03   268
     5       1198     1     2  0.424112E+01  0.111300E+00  0.100000E-03   268
     5       1198     1     9  0.424112E+01  0.111300E+00  0.100000E-03   268
     5       1199     1     2  0.424122E+01  0.111400E+00  0.100000E-03   268
     5       1199     1     9  0.424122E+01  0.111400E+00  0.100000E-03   268
     5       1200     1     2  0.424132E+01  0.111500E+00  0.100000E-03   268
     5       1200     1     9  0.424132E+01  0.111500E+00  0.100000E-03   268
     5       1201     1     2  0.424142E+01  0.111600E+00  0.100000E-03   268
     5       1201     1     9  0.424142E+01  0.111600E+00  0.100000E-03   268
     5       1202     1     2  0.424152E+01  0.111700E+00  0.100000E-03   268
     5       1202     1     9  0.424152E+01  0.111700E+00  0.100000E-03   268
     5       1203     1     2  0.424162E+01  0.111800E+00  0.100000E-03   268
     5       1203     1    12  0.424162E+01  0.111800E+00  0.100000E-03   268
     5       1204     1     2  0.424172E+01  0.111900E+00  0.100000E-03   268
     5       1204     1    12  0.424172E+01  0.111900E+00  0.100000E-03   268
     5       1205     1     2  0.424182E+01  0.112000E+00  0.100000E-03   269
     5       1205     1    12  0.424182E+01  0.112000E+00  0.100000E-03   269
     5       1206     1     2  0.424192E+01  0.112100E+00  0.100000E-03   269
     5       1206     1    12  0.424192E+01  0.112100E+00  0.100000E-03   269
     5       1207     1     2  0.424202E+01  0.112200E+00  0.100000E-03   269
     5       1207     1    11  0.424202E+01  0.112200E+00  0.100000E-03   269
     5       1208     1     2  0.424212E+01  0.112300E+00  0.100000E-03   269
     5       1208     1    10  0.424212E+01  0.112300E+00  0.100000E-03   269
     5       1209     1     2  0.424222E+01  0.112400E+00  0.100000E-03   269
     5       1209     1    10  0.424222E+01  0.112400E+00  0.100000E-03   269
     5       1210     1     2  0.424232E+01  0.112500E+00  0.100000E-03   269
     5       1210     1    10  0.424232E+01  0.112500E+00  0.100000E-03   269
     5       1211     1     2  0.424242E+01  0.112600E+00  0.100000E-03   269
     5       1211     1    10  0.424242E+01  0.112600E+00  0.100000E-03   269
     5       1212     1     2  0.424252E+01  0.112700E+00  0.100000E-03   269
     5       1212     1    10  0.424252E+01  0.112700E+00  0.100000E-03   269
     5       1213     1     2  0.424262E+01  0.112800E+00  0.100000E-03   269
     5       1213     1     9  0.424262E+01  0.112800E+00  0.100000E-03   269
     5       1214     1     2  0.424272E+01  0.112900E+00  0.100000E-03   269
     5       1214     1U   20  0.424262E+01  0.112800E+00  0.100000E-03   269
     5       1214     2     3  0.424272E+01  0.112900E+00  0.100000E-03   269
     5       1214     2U   20  0.424262E+01  0.112800E+00  0.100000E-03   269
     5       1214     3     3  0.424267E+01  0.112850E+00  0.500000E-04   269
     5       1214     3     9  0.424267E+01  0.112850E+00  0.500000E-04   269
     5       1215     1     2  0.424272E+01  0.112900E+00  0.500000E-04   269
     5       1215     1     9  0.424272E+01  0.112900E+00  0.500000E-04   269
     5       1216     1     2  0.424280E+01  0.112975E+00  0.750000E-04   269
     5       1216     1     9  0.424280E+01  0.112975E+00  0.750000E-04   269
     5       1217     1     2  0.424282E+01  0.113000E+00  0.250000E-04   270
     5       1217     1     8  0.424282E+01  0.113000E+00  0.250000E-04   270
     5       1218     1     2  0.424292E+01  0.113100E+00  0.100000E-03   270
     5       1218     1U   20  0.424282E+01  0.113000E+00  0.100000E-03   270
     5       1218     2     3  0.424292E+01  0.113100E+00  0.100000E-03   270
     5       1218     2U   20  0.424282E+01  0.113000E+00  0.100000E-03   270
     5       1218     3     3  0.424287E+01  0.113050E+00  0.500000E-04   270
     5       1218     3     9  0.424287E+01  0.113050E+00  0.500000E-04   270
     5       1219     1     2  0.424292E+01  0.113100E+00  0.500000E-04   270
     5       1219     1     9  0.424292E+01  0.113100E+00  0.500000E-04   270
     5       1220     1     2  0.424300E+01  0.113175E+00  0.750000E-04   270
     5       1220     1     9  0.424300E+01  0.113175E+00  0.750000E-04   270
     5       1221     1     2  0.424310E+01  0.113275E+00  0.100000E-03   270
     5       1221     1    10  0.424310E+01  0.113275E+00  0.100000E-03   270
     5       1222     1     2  0.424320E+01  0.113375E+00  0.100000E-03   270
     5       1222     1    10  0.424320E+01  0.113375E+00  0.100000E-03   270
     5       1223     1     2  0.424330E+01  0.113475E+00  0.100000E-03   270
     5       1223     1     9  0.424330E+01  0.113475E+00  0.100000E-03   270
     5       1224     1     2  0.424340E+01  0.113575E+00  0.100000E-03   270
     5       1224     1     9  0.424340E+01  0.113575E+00  0.100000E-03   270
     5       1225     1     2  0.424350E+01  0.113675E+00  0.100000E-03   270
     5       1225     1     9  0.424350E+01  0.113675E+00  0.100000E-03   270
     5       1226     1     2  0.424360E+01  0.113775E+00  0.100000E-03   270
     5       1226     1     9  0.424360E+01  0.113775E+00  0.100000E-03   270
     5       1227     1     2  0.424370E+01  0.113875E+00  0.100000E-03   270
     5       1227     1     9  0.424370E+01  0.113875E+00  0.100000E-03   270
     5       1228     1     2  0.424380E+01  0.113975E+00  0.100000E-03   270
     5       1228     1    10  0.424380E+01  0.113975E+00  0.100000E-03   270
     5       1229     1     2  0.424382E+01  0.114000E+00  0.250000E-04   271
     5       1229     1     9  0.424382E+01  0.114000E+00  0.250000E-04   271
     5       1230     1     2  0.424392E+01  0.114100E+00  0.100000E-03   271
     5       1230     1U   16  0.424382E+01  0.114000E+00  0.100000E-03   271
     5       1230     2     3  0.424392E+01  0.114100E+00  0.100000E-03   271
     5       1230     2U   16  0.424382E+01  0.114000E+00  0.100000E-03   271
     5       1230     3     3  0.424385E+01  0.114025E+00  0.250000E-04   271
     5       1230     3     9  0.424385E+01  0.114025E+00  0.250000E-04   271
     5       1231     1     2  0.424387E+01  0.114050E+00  0.250000E-04   271
     5       1231     1     9  0.424387E+01  0.114050E+00  0.250000E-04   271
     5       1232     1     2  0.424391E+01  0.114088E+00  0.375000E-04   271
     5       1232     1     9  0.424391E+01  0.114088E+00  0.375000E-04   271
     5       1233     1     2  0.424396E+01  0.114144E+00  0.562500E-04   271
     5       1233     1    10  0.424396E+01  0.114144E+00  0.562500E-04   271
     5       1234     1     2  0.424405E+01  0.114228E+00  0.843750E-04   271
     5       1234     1    10  0.424405E+01  0.114228E+00  0.843750E-04   271
     5       1235     1     2  0.424415E+01  0.114328E+00  0.100000E-03   271
     5       1235     1    10  0.424415E+01  0.114328E+00  0.100000E-03   271
     5       1236     1     2  0.424425E+01  0.114428E+00  0.100000E-03   271
     5       1236     1U   16  0.424415E+01  0.114328E+00  0.100000E-03   271
     5       1236     2     3  0.424425E+01  0.114428E+00  0.100000E-03   271
     5       1236     2U   16  0.424415E+01  0.114328E+00  0.100000E-03   271
     5       1236     3     3  0.424417E+01  0.114353E+00  0.250000E-04   271
     5       1236     3     9  0.424417E+01  0.114353E+00  0.250000E-04   271
     5       1237     1     2  0.424420E+01  0.114378E+00  0.250000E-04   271
     5       1237     1     9  0.424420E+01  0.114378E+00  0.250000E-04   271
     5       1238     1     2  0.424424E+01  0.114416E+00  0.375000E-04   271
     5       1238     1    10  0.424424E+01  0.114416E+00  0.375000E-04   271
     5       1239     1     2  0.424429E+01  0.114472E+00  0.562500E-04   271
     5       1239     1    10  0.424429E+01  0.114472E+00  0.562500E-04   271
     5       1240     1     2  0.424438E+01  0.114556E+00  0.843750E-04   271
     5       1240     1U   19  0.424429E+01  0.114472E+00  0.843750E-04   271
     5       1240     2     3  0.424438E+01  0.114556E+00  0.843750E-04   271
     5       1240     2U   19  0.424429E+01  0.114472E+00  0.843750E-04   271
     5       1240     3     3  0.424431E+01  0.114493E+00  0.210938E-04   271
     5       1240     3     9  0.424431E+01  0.114493E+00  0.210938E-04   271
     5       1241     1     2  0.424433E+01  0.114514E+00  0.210938E-04   271
     5       1241     1     9  0.424433E+01  0.114514E+00  0.210938E-04   271
     5       1242     1     2  0.424437E+01  0.114546E+00  0.316406E-04   271
     5       1242     1     9  0.424437E+01  0.114546E+00  0.316406E-04   271
     5       1243     1     2  0.424441E+01  0.114593E+00  0.474609E-04   271
     5       1243     1    10  0.424441E+01  0.114593E+00  0.474609E-04   271
     5       1244     1     2  0.424448E+01  0.114664E+00  0.711914E-04   271
     5       1244     1U   20  0.424441E+01  0.114593E+00  0.711914E-04   271
     5       1244     2     3  0.424448E+01  0.114664E+00  0.711914E-04   271
     5       1244     2U   20  0.424441E+01  0.114593E+00  0.711914E-04   271
     5       1244     3     3  0.424445E+01  0.114629E+00  0.355957E-04   271
     5       1244     3     9  0.424445E+01  0.114629E+00  0.355957E-04   271
     5       1245     1     2  0.424448E+01  0.114664E+00  0.355957E-04   271
     5       1245     1     9  0.424448E+01  0.114664E+00  0.355957E-04   271
     5       1246     1     2  0.424454E+01  0.114718E+00  0.533936E-04   271
     5       1246     1    10  0.424454E+01  0.114718E+00  0.533936E-04   271
     5       1247     1     2  0.424462E+01  0.114798E+00  0.800903E-04   271
     5       1247     1U   20  0.424454E+01  0.114718E+00  0.800903E-04   271
     5       1247     2     3  0.424462E+01  0.114798E+00  0.800903E-04   271
     5       1247     2U   20  0.424454E+01  0.114718E+00  0.800903E-04   271
     5       1247     3     3  0.424458E+01  0.114758E+00  0.400452E-04   271
     5       1247     3     9  0.424458E+01  0.114758E+00  0.400452E-04   271
     5       1248     1     2  0.424462E+01  0.114798E+00  0.400452E-04   271
     5       1248     1    10  0.424462E+01  0.114798E+00  0.400452E-04   271
     5       1249     1     2  0.424468E+01  0.114858E+00  0.600677E-04   271
     5       1249     1    10  0.424468E+01  0.114858E+00  0.600677E-04   271
     5       1250     1     2  0.424477E+01  0.114948E+00  0.901016E-04   271
     5       1250     1U   16  0.424468E+01  0.114858E+00  0.901016E-04   271
     5       1250     2     3  0.424477E+01  0.114948E+00  0.901016E-04   271
     5       1250     2U   16  0.424468E+01  0.114858E+00  0.901016E-04   271
     5       1250     3     3  0.424470E+01  0.114880E+00  0.225254E-04   271
     5       1250     3     9  0.424470E+01  0.114880E+00  0.225254E-04   271
     5       1251     1     2  0.424472E+01  0.114903E+00  0.225254E-04   271
     5       1251     1     9  0.424472E+01  0.114903E+00  0.225254E-04   271
     5       1252     1     2  0.424476E+01  0.114937E+00  0.337881E-04   271
     5       1252     1    10  0.424476E+01  0.114937E+00  0.337881E-04   271
     5       1253     1     2  0.424481E+01  0.114987E+00  0.506822E-04   271
     5       1253     1U   19  0.424476E+01  0.114937E+00  0.506822E-04   271
     5       1253     2     3  0.424481E+01  0.114987E+00  0.506822E-04   271
     5       1253     2U   19  0.424476E+01  0.114937E+00  0.506822E-04   271
     5       1253     3     3  0.424477E+01  0.114949E+00  0.126705E-04   271
     5       1253     3     8  0.424477E+01  0.114949E+00  0.126705E-04   271
     5       1254     1     2  0.424478E+01  0.114962E+00  0.126705E-04   271
     5       1254     1     9  0.424478E+01  0.114962E+00  0.126705E-04   271
     5       1255     1     2  0.424480E+01  0.114981E+00  0.190058E-04   271
     5       1255     1     9  0.424480E+01  0.114981E+00  0.190058E-04   271
     5       1256     1     2  0.424482E+01  0.115000E+00  0.189071E-04   272
     5       1256     1    10  0.424482E+01  0.115000E+00  0.189071E-04   272
     5       1257     1     2  0.424486E+01  0.115043E+00  0.427631E-04   272
     5       1257     1    10  0.424486E+01  0.115043E+00  0.427631E-04   272
     5       1258     1     2  0.424493E+01  0.115107E+00  0.641446E-04   272
     5       1258     1    10  0.424493E+01  0.115107E+00  0.641446E-04   272
     5       1259     1     2  0.424502E+01  0.115203E+00  0.962169E-04   272
     5       1259     1    10  0.424502E+01  0.115203E+00  0.962169E-04   272
     5       1260     1     2  0.424512E+01  0.115303E+00  0.100000E-03   272
     5       1260     1    10  0.424512E+01  0.115303E+00  0.100000E-03   272
     5       1261     1     2  0.424522E+01  0.115403E+00  0.100000E-03   272
     5       1261     1    10  0.424522E+01  0.115403E+00  0.100000E-03   272
     5       1262     1     2  0.424532E+01  0.115503E+00  0.100000E-03   272
     5       1262     1    10  0.424532E+01  0.115503E+00  0.100000E-03   272
     5       1263     1     2  0.424542E+01  0.115603E+00  0.100000E-03   272
     5       1263     1    10  0.424542E+01  0.115603E+00  0.100000E-03   272
     5       1264     1     2  0.424552E+01  0.115703E+00  0.100000E-03   272
     5       1264     1    10  0.424552E+01  0.115703E+00  0.100000E-03   272
     5       1265     1     2  0.424562E+01  0.115803E+00  0.100000E-03   272
     5       1265     1    10  0.424562E+01  0.115803E+00  0.100000E-03   272
     5       1266     1     2  0.424572E+01  0.115903E+00  0.100000E-03   272
     5       1266     1    10  0.424572E+01  0.115903E+00  0.100000E-03   272
     5       1267     1     2  0.424582E+01  0.116000E+00  0.968754E-04   273
     5       1267     1    11  0.424582E+01  0.116000E+00  0.968754E-04   273
     5       1268     1     2  0.424592E+01  0.116100E+00  0.100000E-03   273
     5       1268     1    12  0.424592E+01  0.116100E+00  0.100000E-03   273
     5       1269     1     2  0.424602E+01  0.116200E+00  0.100000E-03   273
     5       1269     1    12  0.424602E+01  0.116200E+00  0.100000E-03   273
     5       1270     1     2  0.424612E+01  0.116300E+00  0.100000E-03   273
     5       1270     1    13  0.424612E+01  0.116300E+00  0.100000E-03   273
     5       1271     1     2  0.424622E+01  0.116400E+00  0.100000E-03   273
     5       1271     1    13  0.424622E+01  0.116400E+00  0.100000E-03   273
     5       1272     1     2  0.424632E+01  0.116500E+00  0.100000E-03   273
     5       1272     1    12  0.424632E+01  0.116500E+00  0.100000E-03   273
     5       1273     1     2  0.424642E+01  0.116600E+00  0.100000E-03   273
     5       1273     1    13  0.424642E+01  0.116600E+00  0.100000E-03   273
     5       1274     1     2  0.424652E+01  0.116700E+00  0.100000E-03   273
     5       1274     1    15  0.424652E+01  0.116700E+00  0.100000E-03   273
     5       1275     1     2  0.424662E+01  0.116800E+00  0.100000E-03   273
     5       1275     1    16  0.424662E+01  0.116800E+00  0.100000E-03   273
     5       1276     1     2  0.424672E+01  0.116900E+00  0.100000E-03   273
     5       1276     1    17  0.424672E+01  0.116900E+00  0.100000E-03   273
     5       1277     1     2  0.424682E+01  0.117000E+00  0.100000E-03   274
     5       1277     1    18  0.424682E+01  0.117000E+00  0.100000E-03   274
     5       1278     1     2  0.424692E+01  0.117100E+00  0.100000E-03   274
     5       1278     1    19  0.424692E+01  0.117100E+00  0.100000E-03   274
     5       1279     1     2  0.424702E+01  0.117200E+00  0.100000E-03   274
     5       1279     1U   20  0.424692E+01  0.117100E+00  0.100000E-03   274
     5       1279     2     4  0.424702E+01  0.117200E+00  0.100000E-03   274
     5       1279     2U   20  0.424692E+01  0.117100E+00  0.100000E-03   274
     5       1279     3     3  0.424697E+01  0.117150E+00  0.500000E-04   274
     5       1279     3U   20  0.424692E+01  0.117100E+00  0.500000E-04   274
     5       1279     4     3  0.424695E+01  0.117125E+00  0.250000E-04   274
     5       1279     4U   20  0.424692E+01  0.117100E+00  0.250000E-04   274
     5       1279     5     3  0.424693E+01  0.117113E+00  0.125000E-04   274
     5       1279     5U   20  0.424692E+01  0.117100E+00  0.125000E-04   274
     5       1279     6     3  0.424693E+01  0.117106E+00  0.625000E-05   274
     5       1279     6U   20  0.424692E+01  0.117100E+00  0.625000E-05   274
