*HEADING
10x10 C3D8R plate tension
*NODE
1, 0.000000, 0.000000, 0.000000
2, 0.100000, 0.000000, 0.000000
3, 0.200000, 0.000000, 0.000000
4, 0.300000, 0.000000, 0.000000
5, 0.400000, 0.000000, 0.000000
6, 0.500000, 0.000000, 0.000000
7, 0.600000, 0.000000, 0.000000
8, 0.700000, 0.000000, 0.000000
9, 0.800000, 0.000000, 0.000000
10, 0.900000, 0.000000, 0.000000
11, 1.000000, 0.000000, 0.000000
12, 0.000000, 0.100000, 0.000000
13, 0.100000, 0.100000, 0.000000
14, 0.200000, 0.100000, 0.000000
15, 0.300000, 0.100000, 0.000000
16, 0.400000, 0.100000, 0.000000
17, 0.500000, 0.100000, 0.000000
18, 0.600000, 0.100000, 0.000000
19, 0.700000, 0.100000, 0.000000
20, 0.800000, 0.100000, 0.000000
** ... 222 like lines cut
*ELEMENT, TYPE=C3D8R, ELSET=EALL
1, 1, 2, 13, 12, 122, 123, 134, 133
2, 2, 3, 14, 13, 123, 124, 135, 134
3, 3, 4, 15, 14, 124, 125, 136, 135
4, 4, 5, 16, 15, 125, 126, 137, 136
5, 5, 6, 17, 16, 126, 127, 138, 137
6, 6, 7, 18, 17, 127, 128, 139, 138
7, 7, 8, 19, 18, 128, 129, 140, 139
8, 8, 9, 20, 19, 129, 130, 141, 140
9, 9, 10, 21, 20, 130, 131, 142, 141
10, 10, 11, 22, 21, 131, 132, 143, 142
11, 12, 13, 24, 23, 133, 134, 145, 144
12, 13, 14, 25, 24, 134, 135, 146, 145
13, 14, 15, 26, 25, 135, 136, 147, 146
14, 15, 16, 27, 26, 136, 137, 148, 147
15, 16, 17, 28, 27, 137, 138, 149, 148
16, 17, 18, 29, 28, 138, 139, 150, 149
17, 18, 19, 30, 29, 139, 140, 151, 150
18, 19, 20, 31, 30, 140, 141, 152, 151
19, 20, 21, 32, 31, 141, 142, 153, 152
20, 21, 22, 33, 32, 142, 143, 154, 153
** ... 80 like lines cut
*NSET, NSET=NLEFT
1, 12, 23, 34, 45, 56, 67, 78, 89, 100, 111, 122, 133, 144, 155, 166
177, 188, 199, 210, 221, 232
*NSET, NSET=NRIGHT
11, 22, 33, 44, 55, 66, 77, 88, 99, 110, 121, 132, 143, 154, 165, 176
187, 198, 209, 220, 231, 242
*MATERIAL, NAME=MA1
*ELASTIC
210e9, 0.3
*SOLID SECTION, ELSET=EALL, MATERIAL=MA1
*BOUNDARY
1, 1, 1, 0.0
1, 3, 3, 0.0
12, 1, 1, 0.0
12, 3, 3, 0.0
23, 1, 1, 0.0
23, 3, 3, 0.0
34, 1, 1, 0.0
34, 3, 3, 0.0
45, 1, 1, 0.0
45, 3, 3, 0.0
56, 1, 1, 0.0
56, 3, 3, 0.0
67, 1, 1, 0.0
67, 3, 3, 0.0
78, 1, 1, 0.0
78, 3, 3, 0.0
89, 1, 1, 0.0
89, 3, 3, 0.0
100, 1, 1, 0.0
100, 3, 3, 0.0
** ... 68 like lines cut
*STEP
*STATIC
*NODE FILE
U
*EL FILE
S
*END STEP