*HEADING
Powder + creep coupling smoke test (kode=-73): 2 elements, 3 materials
Element 1 (EPOWDER): *METAL POWDER only (kode=-70 baseline)
Element 2 (ECOUPLED): *METAL POWDER + *CREEP-SOFTENING DENSITY_COUPLING=1 (kode=-73)
** Verifies SDV14-20 in coupled element, SDV1-16 in powder-only element
*NODE
1, 0.0, 0.0, 0.0
2, 1.0, 0.0, 0.0
3, 1.0, 1.0, 0.0
4, 0.0, 1.0, 0.0
5, 0.0, 0.0, 1.0
6, 1.0, 0.0, 1.0
7, 1.0, 1.0, 1.0
8, 0.0, 1.0, 1.0
9, 2.0, 0.0, 0.0
10, 2.0, 1.0, 0.0
11, 2.0, 0.0, 1.0
12, 2.0, 1.0, 1.0
*ELEMENT, TYPE=C3D8, ELSET=EPOWDER
1, 1, 2, 3, 4, 5, 6, 7, 8
*ELEMENT, TYPE=C3D8, ELSET=ECOUPLED
2, 2, 9, 10, 3, 6, 11, 12, 7
*ELSET, ELSET=EALL
EPOWDER, ECOUPLED
*NSET, NSET=NALL
1,2,3,4,5,6,7,8,9,10,11,12
*NSET, NSET=NBOT
1,2,3,4,9,10
*NSET, NSET=NTOP_POWDER
5,6,7,8
*NSET, NSET=NTOP_COUPLED
6,11,12,7
** --- Material 1: powder only (kode=-70 baseline) ---
*SOLID SECTION, ELSET=EPOWDER, MATERIAL=STEEL_POWDER
*MATERIAL, NAME=STEEL_POWDER
*DENSITY
7800.
*ELASTIC
200e9,0.3, 600
*EXPANSION
1.5E-05, 600
*CONDUCTIVITY
25., 600
*SPECIFIC HEAT
560., 600
** beta=2.0, R=1.0, dens0=0.75, d0=0.05, d_th=0.95
*METAL POWDER
2.0, 1.0, 0.75, 0.05, 0.95, 600.
*DEPVAR
53
** --- Material 2: powder + creep coupled (kode=-73) ---
** *METAL POWDER must be before *CREEP-SOFTENING for coupling
*SOLID SECTION, ELSET=ECOUPLED, MATERIAL=STEEL_COUPLED
*MATERIAL, NAME=STEEL_COUPLED
*DENSITY
7800.
*ELASTIC
200e9,0.3, 600
*EXPANSION
1.5E-05, 600
*CONDUCTIVITY
25., 600
*SPECIFIC HEAT
560., 600
** beta=2.0, R=1.0, dens0=0.85, d0=0.05, d_th=0.95
*METAL POWDER
2.0, 1.0, 0.85, 0.05, 0.95, 600.
** ENABLE=1, TYPE=1(Norton), A=1e-15, N=3.0
** DENSITY_COUPLING=1 (param 13), TIME_UNIT=1
*CREEP-SOFTENING
1,1,1.0e-15,0.,3.0,0.,0.,0.
0.,1.,0.,273.,1,1000.,1.e-2,0
*DEPVAR
53
*INITIAL CONDITIONS,TYPE=TEMPERATURE
NALL, 600.
**
*STEP, INC=100
Powder + creep coupled: 600C, 1% compression over 10s
*STATIC
0.1, 10., 1.E-6, 10.
*TEMPERATURE
NALL, 600.
*BOUNDARY
NBOT, 1,3, 0.0
*BOUNDARY
NTOP_POWDER, 1, 2, 0.0
*BOUNDARY
NTOP_POWDER, 3, 3, -0.01
*BOUNDARY
NTOP_COUPLED, 1, 2, 0.0
*BOUNDARY
NTOP_COUPLED, 3, 3, -0.01
*NODE PRINT, NSET=NALL
U
*NODE FILE
U
*EL FILE
S, SDV
*EL PRINT, ELSET=EALL
S, SDV
*END STEP
