*HEADING
SRX minimal test: below-Ec compression + holding at 1000 C
Single C3D8 element, 50 SDVs
*NODE
1, 0.0, 0.0, 0.0
2, 1.0, 0.0, 0.0
3, 1.0, 1.0, 0.0
4, 0.0, 1.0, 0.0
5, 0.0, 0.0, 1.0
6, 1.0, 0.0, 1.0
7, 1.0, 1.0, 1.0
8, 0.0, 1.0, 1.0
*ELEMENT, TYPE=C3D8, ELSET=EALL
1, 1, 2, 3, 4, 5, 6, 7, 8
*NSET, NSET=NALL
1,2,3,4,5,6,7,8
*NSET, NSET=NTOP
5,6,7,8
*NSET, NSET=NBOT
1,2,3,4
*SOLID SECTION, ELSET=EALL, MATERIAL=STEEL
*MATERIAL, NAME=STEEL
*DENSITY
7800.
*ELASTIC
200e9,0.3, 600
190e9,0.31, 800
*EXPANSION
1.5E-05, 600
1.7E-05, 900
*CONDUCTIVITY
25., 600
26., 900
*SPECIFIC HEAT
560., 600
660., 900
*RATE-DEPENDENTPLASTIC
1,200e9,0.3,80821.638e6,-0.00655,-0.0017,-0.127,0.186
*DEPVAR
50
*DYNAMICRECRYSTALLIZATION
0.004659,0.,0.1238,49520.,0.,0,0,50.
5.043e-9,0.,-1.42,-0.408,196000.,0.,0.8,0.693
1.,485.e8,0.,-0.41,-0.028,-24.e4,0.
1.0,
**
*INITIAL CONDITIONS,TYPE=TEMPERATURE
NALL, 1000.
**
*STEP, INC=100
Compression: small strain (below Ec) — 3% compression
*STATIC
1.E-3, 0.03, 1.E-6, 0.03
*TEMPERATURE
NALL, 1000.
*BOUNDARY
NBOT, 1,3, 0.0
*BOUNDARY
NTOP, 1,2, 0.0
*BOUNDARY
NTOP, 3, 3, -0.03
*NODE PRINT, NSET=NALL
U
*NODE FILE
U
*EL FILE
S, PEEQ, SDV
*EL PRINT, ELSET=EALL
S, SDV
*END STEP
**
*STEP, INC=200
Holding at 1000 C for SRX kinetics
*STATIC
1.E-3, 100., 1.E-8, 100.
*TEMPERATURE
NALL, 1000.
*BOUNDARY
NBOT, 1,3, 0.0
*NODE PRINT, NSET=NALL
U
*NODE FILE
U
*EL FILE
S, PEEQ, SDV
*EL PRINT, ELSET=EALL
S, SDV
*END STEP
