*HEADING
Stress relaxation at constant strain: heat treatment aging at 550 C
Single C3D8 element, SDV up to 53, Norton MODEL_TYPE=1
** Step1: 1s elastic ramp to 0.1% compression
** Step2: 500s constant-strain hold — creep relaxes stress
*NODE
1, 0.0, 0.0, 0.0
2, 1.0, 0.0, 0.0
3, 1.0, 1.0, 0.0
4, 0.0, 1.0, 0.0
5, 0.0, 0.0, 1.0
6, 1.0, 0.0, 1.0
7, 1.0, 1.0, 1.0
8, 0.0, 1.0, 1.0
*ELEMENT, TYPE=C3D8, ELSET=EALL
1, 1, 2, 3, 4, 5, 6, 7, 8
*NSET, NSET=NALL
1,2,3,4,5,6,7,8
*NSET, NSET=NTOP
5,6,7,8
*NSET, NSET=NBOT
1,2,3,4
*SOLID SECTION, ELSET=EALL, MATERIAL=STEEL
*MATERIAL, NAME=STEEL
*DENSITY
7800.
*ELASTIC
210e9,0.3, 500
200e9,0.3, 600
190e9,0.31, 900
*EXPANSION
1.4E-05, 500
1.5E-05, 600
1.7E-05, 900
*CONDUCTIVITY
24., 500
25., 600
26., 900
*SPECIFIC HEAT
530., 500
560., 600
660., 900
** ENABLE=1, TYPE=1(Norton), A=1e-9, B=0, N=3.0
** Q_ACT=0, REF_TEMP=273, DENSITY_COUPLING=0, MIN_STRESS=100, MAX_DINC=0.001, OUTPUT_MODE=1
** SDV49=1.0 expected for Norton (no explicit softening factor)
*CREEP-SOFTENING
1,1,1.0e-9,0.,3.0,0.,0.,0.
0.,1.,0.,273.,0,100.,0.001,1
*DEPVAR
53
*INITIAL CONDITIONS,TYPE=TEMPERATURE
NALL, 550.
**
*STEP, INC=50
Step 1: fast elastic ramp to 0.1% compression in 1s
*STATIC
0.01, 1.0, 1.E-8, 1.0
*TEMPERATURE
NALL, 550.
*BOUNDARY
NBOT, 1,3, 0.0
*BOUNDARY
NTOP, 1, 2, 0.0
*BOUNDARY
NTOP, 3, 3, -0.001
*NODE PRINT, NSET=NALL
U
*NODE FILE
U
*EL FILE
S, SDV
*EL PRINT, ELSET=EALL
S, SDV
*END STEP
**
*STEP, INC=200
Step 2: constant-strain hold at 550C for 500s — stress relaxes via creep
*STATIC
0.1, 500., 1.E-8, 500.
*TEMPERATURE
NALL, 550.
*BOUNDARY
NBOT, 1,3, 0.0
*BOUNDARY
NTOP, 1, 2, 0.0
*BOUNDARY
NTOP, 3, 3, -0.001
*NODE PRINT, NSET=NALL
U
*NODE FILE
U
*EL FILE
S, SDV
*EL PRINT, ELSET=EALL
S, SDV
*END STEP
