*HEADING
C3D6 single element test - 6-node wedge
*NODE
1,  0.0, 0.0, 0.0
2,  1.0, 0.0, 0.0
3,  0.5, 1.0, 0.0
4,  0.0, 0.0, 1.0
5,  1.0, 0.0, 1.0
6,  0.5, 1.0, 1.0
*ELEMENT, TYPE=C3D6, ELSET=EALL
1, 1, 2, 3, 4, 5, 6
*SOLID SECTION, ELSET=EALL, MATERIAL=STEEL
*MATERIAL, NAME=STEEL
*ELASTIC
210000.0, 0.3
*STEP
*STATIC
*BOUNDARY
1, 1,3, 0.0
2, 1,3, 0.0
3, 1,3, 0.0
*CLOAD
4, 3, -50.0
5, 3, -50.0
6, 3, -50.0
*NODE PRINT, NSET=NSETALL
U
*NODE PRINT, NSET=NSETALL
RF
*NSET, NSET=NSETALL
1,2,3,4,5,6
*END STEP
