*HEADING
C3D8 single element test - 8-node linear hex
*NODE
1, 0.0, 0.0, 0.0
2, 1.0, 0.0, 0.0
3, 1.0, 1.0, 0.0
4, 0.0, 1.0, 0.0
5, 0.0, 0.0, 1.0
6, 1.0, 0.0, 1.0
7, 1.0, 1.0, 1.0
8, 0.0, 1.0, 1.0
*ELEMENT, TYPE=C3D8, ELSET=EALL
1, 1, 2, 3, 4, 5, 6, 7, 8
*SOLID SECTION, ELSET=EALL, MATERIAL=STEEL
*MATERIAL, NAME=STEEL
*ELASTIC
210000.0, 0.3
*STEP
*STATIC
*BOUNDARY
1, 1,3, 0.0
2, 1,3, 0.0
3, 1,3, 0.0
4, 1,3, 0.0
*CLOAD
5, 3, -25.0
6, 3, -25.0
7, 3, -25.0
8, 3, -25.0
*NODE PRINT, NSET=NSETALL
U
*NODE PRINT, NSET=NSETALL
RF
*NSET, NSET=NSETALL
1,2,3,4,5,6,7,8
*END STEP
