*HEADING
C3D15 single element test - 15-node quadratic wedge (VTK node order)
*NODE
1,  0.0, 0.0, 0.0
2,  1.0, 0.0, 0.0
3,  0.5, 1.0, 0.0
4,  0.0, 0.0, 1.0
5,  1.0, 0.0, 1.0
6,  0.5, 1.0, 1.0
7,  0.5, 0.0, 0.0
8,  0.75,0.5, 0.0
9,  0.25,0.5, 0.0
10, 0.5, 0.0, 1.0
11, 0.75,0.5, 1.0
12, 0.25,0.5, 1.0
13, 0.0, 0.0, 0.5
14, 1.0, 0.0, 0.5
15, 0.5, 1.0, 0.5
*ELEMENT, TYPE=C3D15, ELSET=EALL
1, 1, 2, 3, 4, 5, 6, 7, 8, 9, 10, 11, 12, 13, 14, 15
*SOLID SECTION, ELSET=EALL, MATERIAL=STEEL
*MATERIAL, NAME=STEEL
*ELASTIC
210000.0, 0.3
*STEP
*STATIC
*BOUNDARY
1, 1,3, 0.0
2, 1,3, 0.0
3, 1,3, 0.0
7, 1,3, 0.0
8, 1,3, 0.0
9, 1,3, 0.0
*CLOAD
4, 3, -30.0
5, 3, -30.0
6, 3, -30.0
10,3, -30.0
11,3, -30.0
12,3, -30.0
*NODE PRINT, NSET=NSETALL
U
*NODE PRINT, NSET=NSETALL
RF
*NSET, NSET=NSETALL
1,2,3,4,5,6,7,8,9,10,11,12,13,14,15
*END STEP
