*HEADING
C3D20R single element test - 20-node quadratic hex reduced integration
*NODE
1,  0.0, 0.0, 0.0
2,  1.0, 0.0, 0.0
3,  1.0, 1.0, 0.0
4,  0.0, 1.0, 0.0
5,  0.0, 0.0, 1.0
6,  1.0, 0.0, 1.0
7,  1.0, 1.0, 1.0
8,  0.0, 1.0, 1.0
9,  0.5, 0.0, 0.0
10, 1.0, 0.5, 0.0
11, 0.5, 1.0, 0.0
12, 0.0, 0.5, 0.0
13, 0.5, 0.0, 1.0
14, 1.0, 0.5, 1.0
15, 0.5, 1.0, 1.0
16, 0.0, 0.5, 1.0
17, 0.0, 0.0, 0.5
18, 1.0, 0.0, 0.5
19, 1.0, 1.0, 0.5
20, 0.0, 1.0, 0.5
*ELEMENT, TYPE=C3D20R, ELSET=EALL
1,1,2,3,4,5,6,7,8,9,10,11,12,13,14,15
16,17,18,19,20
*SOLID SECTION, ELSET=EALL, MATERIAL=STEEL
*MATERIAL, NAME=STEEL
*ELASTIC
210000.0, 0.3
*STEP
*STATIC
*BOUNDARY
1, 1,3, 0.0
2, 1,3, 0.0
3, 1,3, 0.0
4, 1,3, 0.0
9, 1,3, 0.0
10,1,3, 0.0
11,1,3, 0.0
12,1,3, 0.0
17,1,3, 0.0
*CLOAD
5, 3, -25.0
6, 3, -25.0
7, 3, -25.0
8, 3, -25.0
13,3, -25.0
14,3, -25.0
15,3, -25.0
16,3, -25.0
*NODE PRINT, NSET=NSETALL
U
*NODE PRINT, NSET=NSETALL
RF
*NSET, NSET=NSETALL
1,2,3,4,5,6,7,8,9,10,11,12,13,14,15,16
17,18,19,20
*END STEP
