*HEADING
CAX8 single element test - 8-node quadratic axisymmetric quad
*NODE
1,  0.0, 0.0
2,  1.0, 0.0
3,  1.0, 1.0
4,  0.0, 1.0
5,  0.5, 0.0
6,  1.0, 0.5
7,  0.5, 1.0
8,  0.0, 0.5
*ELEMENT, TYPE=CAX8, ELSET=EALL
1, 1, 2, 3, 4, 5, 6, 7, 8
*SOLID SECTION, ELSET=EALL, MATERIAL=STEEL
*MATERIAL, NAME=STEEL
*ELASTIC
210000.0, 0.3
*STEP
*STATIC
*BOUNDARY
1, 1,2, 0.0
4, 1,1, 0.0
8, 1,1, 0.0
*CLOAD
2, 2, -100.0
3, 2, -100.0
5, 2, -50.0
6, 2, -50.0
7, 2, -50.0
*NODE PRINT, NSET=NSETALL
U
*NODE PRINT, NSET=NSETALL
RF
*NSET, NSET=NSETALL
1,2,3,4,5,6,7,8
*END STEP
