*HEADING
CAX3 single element test - 3-node axisymmetric triangle
*NODE
1,  0.0, 0.0
2,  1.0, 0.0
3,  0.0, 1.0
*ELEMENT, TYPE=CAX3, ELSET=EALL
1, 1, 2, 3
*SOLID SECTION, ELSET=EALL, MATERIAL=STEEL
*MATERIAL, NAME=STEEL
*ELASTIC
210000.0, 0.3
*STEP
*STATIC
*BOUNDARY
1, 1,2, 0.0
3, 1,1, 0.0
*CLOAD
2, 2, -100.0
*NODE PRINT, NSET=NSETALL
U
*NODE PRINT, NSET=NSETALL
RF
*NSET, NSET=NSETALL
1,2,3
*END STEP
