*HEADING
CAX4R single element test - 4-node axisymmetric quad reduced integration
*NODE
1,  0.0, 0.0
2,  1.0, 0.0
3,  1.0, 1.0
4,  0.0, 1.0
*ELEMENT, TYPE=CAX4R, ELSET=EALL
1, 1, 2, 3, 4
*SOLID SECTION, ELSET=EALL, MATERIAL=STEEL
*MATERIAL, NAME=STEEL
*ELASTIC
210000.0, 0.3
*STEP
*STATIC
*BOUNDARY
1, 1,2, 0.0
4, 1,1, 0.0
*CLOAD
2, 2, -100.0
3, 2, -100.0
*NODE PRINT, NSET=NSETALL
U
*NODE PRINT, NSET=NSETALL
RF
*NSET, NSET=NSETALL
1,2,3,4
*END STEP
