*HEADING
C3D4 single element test - 4-node tetrahedral
*NODE
1,  0.0, 0.0, 0.0
2,  1.0, 0.0, 0.0
3,  0.5, 1.0, 0.0
4,  0.5, 0.3, 1.0
*ELEMENT, TYPE=C3D4, ELSET=EALL
1, 1, 2, 3, 4
*SOLID SECTION, ELSET=EALL, MATERIAL=STEEL
*MATERIAL, NAME=STEEL
*ELASTIC
210000.0, 0.3
*STEP
*STATIC
*BOUNDARY
1, 1,3, 0.0
2, 1,3, 0.0
3, 1,3, 0.0
*CLOAD
4, 3, -100.0
*NODE PRINT, NSET=NSETALL
U
*NODE PRINT, NSET=NSETALL
RF
*NSET, NSET=NSETALL
1,2,3,4
*END STEP
