*HEADING
CAX6 single element test - 6-node quadratic axisymmetric triangle
*NODE
1,  0.0, 0.0
2,  1.0, 0.0
3,  0.0, 1.0
4,  0.5, 0.0
5,  0.5, 0.5
6,  0.0, 0.5
*ELEMENT, TYPE=CAX6, ELSET=EALL
1, 1, 2, 3, 4, 5, 6
*SOLID SECTION, ELSET=EALL, MATERIAL=STEEL
*MATERIAL, NAME=STEEL
*ELASTIC
210000.0, 0.3
*STEP
*STATIC
*BOUNDARY
1, 1,2, 0.0
3, 1,1, 0.0
6, 1,1, 0.0
*CLOAD
2, 2, -100.0
4, 2, -50.0
*NODE PRINT, NSET=NSETALL
U
*NODE PRINT, NSET=NSETALL
RF
*NSET, NSET=NSETALL
1,2,3,4,5,6
*END STEP
